<?xml version="1.0" encoding="UTF-8"?>

<!-- generated on 2024-05-29 16:02:25 by Eclipse SUMO duarouter Version 1.12.0
<configuration xmlns:xsi="http://www.w3.org/2001/XMLSchema-instance" xsi:noNamespaceSchemaLocation="http://sumo.dlr.de/xsd/duarouterConfiguration.xsd">

    <input>
        <net-file value="map.net.xml"/>
        <route-files value="bus_trips.xml"/>
    </input>

    <output>
        <output-file value="bus_routes.rou.xml"/>
        <alternatives-output value="bus_routes.rou.alt.xml"/>
    </output>

    <time>
        <begin value="0"/>
        <end value="3600"/>
    </time>

    <report>
        <no-warnings value="true"/>
        <ignore-errors value="true"/>
        <no-step-log value="true"/>
    </report>

</configuration>
-->

<routes xmlns:xsi="http://www.w3.org/2001/XMLSchema-instance" xsi:noNamespaceSchemaLocation="http://sumo.dlr.de/xsd/routes_file.xsd">
    <vType id="bus" vClass="bus" accel="0.8"/>
    <vehicle id="bus0" type="bus" depart="0.00">
        <route edges="373750235 -323204750#3 183766545#1 183766545#2 -183766545#2"/>
    </vehicle>
    <vehicle id="bus1" type="bus" depart="30.00">
        <route edges="-840059240#1 -840059240#0 -840059241 840059241 840059240#0 840059240#1 840059240#2 317468833 840059237#1 317468471 218991136#1 408821095#0 -408821095#0"/>
    </vehicle>
    <vehicle id="bus2" type="bus" depart="60.00">
        <route edges="373750633#0 -840059244 183766545#0 323204750#3 97552111#0 97552111#1 373750238#5 373750238#0 373750238#1 373750241 373750240"/>
    </vehicle>
    <vehicle id="bus3" type="bus" depart="90.00">
        <route edges="840059244 -840059244 183766545#0 -323204750#2 -218991073#4"/>
    </vehicle>
    <vehicle id="bus4" type="bus" depart="120.00">
        <route edges="183766545#0 -323204750#2 -218991073#4 -218991073#3 -218991073#2 -218991073#1 -192225646#0"/>
    </vehicle>
    <vehicle id="bus6" type="bus" depart="180.00">
        <route edges="-183766545#2 -183766545#1 -323204750#2"/>
    </vehicle>
    <vehicle id="bus7" type="bus" depart="210.00">
        <route edges="373750237 97552102 373750238#2 373750238#3 373750235 -323204750#3 -323204750#2 373750633#0 373750633#1 -408821095#0 -218991136#1 218991136#1"/>
    </vehicle>
    <vehicle id="bus11" type="bus" depart="330.00">
        <route edges="-840066117 -97552125#0 97552102 373750238#2 373750238#3 373750235 -323204750#3 -323204750#2 373750633#0 373750633#1 -408821095#0 -218991136#1 -317468471"/>
    </vehicle>
    <vehicle id="bus12" type="bus" depart="360.00">
        <route edges="97552081#1 -97552081#1 -97552081#0 373750240 373750238#3 373750238#4 373750238#5 373750238#0 373750237 97552125#0 840066117 -840066117"/>
    </vehicle>
    <vehicle id="bus13" type="bus" depart="390.00">
        <route edges="-218991073#4 218991073#4 323204750#2 323204750#3 97552111#0 97552111#1 373750238#5 373750238#0 373750237 97552125#0 840066117 -218991086#0"/>
    </vehicle>
    <vehicle id="bus15" type="bus" depart="450.00">
        <route edges="840059237#0 840059237#1 840059237#2 840059238#0 373750633#4"/>
    </vehicle>
    <vehicle id="bus16" type="bus" depart="480.00">
        <route edges="218991117 218991073#4 323204750#2 323204750#3 97552111#0 97552111#1"/>
    </vehicle>
    <vehicle id="bus17" type="bus" depart="510.00">
        <route edges="-97552081#0 373750240 373750238#3 373750235 -323204750#3 -323204750#2 373750633#0 373750633#1 373750633#2 373750633#3 -840059238#0 -840059237#2 317468471"/>
    </vehicle>
    <vehicle id="bus20" type="bus" depart="600.00">
        <route edges="373750238#4 373750238#5 373750238#0 373750238#1 373750238#2 373750238#3 373750235 -323204750#3 -323204750#2 -218991073#4 -218991073#3 -218991015"/>
    </vehicle>
    <vehicle id="bus21" type="bus" depart="630.00">
        <route edges="-840059237#2 -840059237#1 -317468833 -840059240#2 -840059240#1"/>
    </vehicle>
    <vehicle id="bus22" type="bus" depart="660.00">
        <route edges="-218991073#3 -218991073#2 -839036438"/>
    </vehicle>
    <vehicle id="bus23" type="bus" depart="690.00">
        <route edges="-218991086#1 -840066117 -97552125#0 97552102 373750238#2 373750238#3 373750235 -323204750#3 -323204750#2 373750633#0 373750633#1 373750633#2 373750633#3 373750633#4 840059241 840059240#0 840059240#1 -840059240#1 -840059240#0"/>
    </vehicle>
    <vehicle id="bus24" type="bus" depart="720.00">
        <route edges="323204750#3 97552111#0 97552111#1 373750238#5 373750238#0 373750238#1 373750241 97552081#0 -840115319#1 -840207176#0"/>
    </vehicle>
    <vehicle id="bus25" type="bus" depart="750.00">
        <route edges="-840207176#1 840115319#1 -97552081#0 373750240 373750238#3 373750235 -323204750#3"/>
    </vehicle>
    <vehicle id="bus27" type="bus" depart="810.00">
        <route edges="373750237"/>
    </vehicle>
    <vehicle id="bus28" type="bus" depart="840.00">
        <route edges="-323204750#1 -323204750#0 323204750#0 323204750#1 373750633#0 373750633#1 373750633#2 373750633#3 373750633#4"/>
    </vehicle>
    <vehicle id="bus29" type="bus" depart="870.00">
        <route edges="-323204750#1 -323204750#0 323204750#0 323204750#1 323204750#2 323204750#3 97552111#0 97552111#1 373750238#5 373750238#0 373750238#1 373750241 97552081#0 -97552081#0"/>
    </vehicle>
    <vehicle id="bus30" type="bus" depart="900.00">
        <route edges="97552111#1 373750238#5 373750238#0 373750238#1 373750238#2"/>
    </vehicle>
    <vehicle id="bus32" type="bus" depart="960.00">
        <route edges="840059240#0 840059240#1 840059240#2 317468833 840059237#1 840059237#2"/>
    </vehicle>
    <vehicle id="bus34" type="bus" depart="1020.00">
        <route edges="-840059243 373750633#1 373750633#2 373750633#3 -840059238#0"/>
    </vehicle>
    <vehicle id="bus36" type="bus" depart="1080.00">
        <route edges="840059241 840059240#0 840059240#1 -840059240#1 -840059240#0 -840059241"/>
    </vehicle>
    <vehicle id="bus37" type="bus" depart="1110.00">
        <route edges="373750237 97552102 373750241 97552081#0 97552081#1 -97552081#1"/>
    </vehicle>
    <vehicle id="bus38" type="bus" depart="1140.00">
        <route edges="840115319#1 -97552081#0 373750240 373750238#3 373750235 -323204750#3 -323204750#2 -218991073#4 -218991073#3 -218991073#2 -218991073#1 192225646#1"/>
    </vehicle>
    <vehicle id="bus39" type="bus" depart="1170.00">
        <route edges="-840059240#0 -840059241 840059241 840059240#0 840059240#1 840059240#2 317468833 840059237#1 -840059237#1"/>
    </vehicle>
    <vehicle id="bus40" type="bus" depart="1200.00">
        <route edges="218991136#1 408821095#0 373750633#2 373750633#3 -840059238#0 -840059237#2"/>
    </vehicle>
    <vehicle id="bus42" type="bus" depart="1260.00">
        <route edges="-97552081#2 -97552081#1 -97552081#0 373750240 373750238#3 373750235 -323204750#3 -323204750#2 373750633#0 373750633#1 -408821095#0"/>
    </vehicle>
    <vehicle id="bus43" type="bus" depart="1290.00">
        <route edges="97552125#0 -97552125#0 97552102 373750238#2 373750238#3 373750235 -323204750#3 -323204750#2 373750633#0 373750633#1 373750633#2 373750633#3 373750633#4 840059241 840059240#0 840059240#1 218991107#0"/>
    </vehicle>
    <vehicle id="bus44" type="bus" depart="1320.00">
        <route edges="-218991073#4 -218991073#3 -218991015"/>
    </vehicle>
    <vehicle id="bus46" type="bus" depart="1380.00">
        <route edges="839036438 218991073#2 218991073#3 218991073#4 323204750#2 183766545#1"/>
    </vehicle>
    <vehicle id="bus47" type="bus" depart="1410.00">
        <route edges="-218991073#1 218991073#1 218991073#2 218991073#3 218991073#4 323204750#2 323204750#3 97552111#0 97552111#1 373750238#5 373750238#0 373750238#1 373750241 97552081#0 -97552081#0"/>
    </vehicle>
    <vehicle id="bus48" type="bus" depart="1440.00">
        <route edges="97552125#0 -97552125#0 97552102 373750238#2 373750238#3 373750235 -323204750#3 183766545#1 218991117"/>
    </vehicle>
    <vehicle id="bus49" type="bus" depart="1470.00">
        <route edges="97552102 373750238#2 373750238#3 373750235 -323204750#3 -323204750#2 373750633#0 373750633#1 373750633#2 373750633#3 373750633#4 840059241"/>
    </vehicle>
    <vehicle id="bus50" type="bus" depart="1500.00">
        <route edges="-183766545#1 -323204750#2 373750633#0 373750633#1 373750633#2 373750633#3"/>
    </vehicle>
    <vehicle id="bus51" type="bus" depart="1530.00">
        <route edges="373750238#2 373750238#3 373750235 -323204750#3 183766545#1 218991117"/>
    </vehicle>
    <vehicle id="bus54" type="bus" depart="1620.00">
        <route edges="192225646#0 218991073#1 218991073#2 218991073#3 218991073#4 323204750#2 323204750#3 97552111#0 97552111#1 373750238#5 373750238#0 373750237 97552102"/>
    </vehicle>
    <vehicle id="bus55" type="bus" depart="1650.00">
        <route edges="840059240#3 -840059240#3 317468833 840059237#1 840059237#2 840059238#0 -840059238#0 -840059237#2"/>
    </vehicle>
    <vehicle id="bus56" type="bus" depart="1680.00">
        <route edges="218991073#3 218991073#4 373750633#0 373750633#1 373750633#2 373750633#3 -840059238#0 -840059237#2 -840059237#1 -317468833"/>
    </vehicle>
    <vehicle id="bus57" type="bus" depart="1710.00">
        <route edges="840115319#0 840115319#1 -97552081#0 373750240 373750238#3 373750235 -323204750#3 -323204750#2 373750633#0 840059243"/>
    </vehicle>
    <vehicle id="bus59" type="bus" depart="1770.00">
        <route edges="323204750#0 323204750#1 373750633#0 373750633#1 -408821095#0 -218991136#1 -317468471"/>
    </vehicle>
    <vehicle id="bus60" type="bus" depart="1800.00">
        <route edges="373750633#3 -840059238#0 -840059237#2 317468471 218991136#1"/>
    </vehicle>
    <vehicle id="bus62" type="bus" depart="1860.00">
        <route edges="-183766545#0 840059244 -840059244"/>
    </vehicle>
    <vehicle id="bus63" type="bus" depart="1890.00">
        <route edges="-183766545#2 -183766545#1 323204750#3 97552111#0 97552111#1 373750238#5 373750238#0 373750238#1 373750241 97552081#0"/>
    </vehicle>
    <vehicle id="bus64" type="bus" depart="1920.00">
        <route edges="840059241 840059240#0 840059240#1 840059240#2"/>
    </vehicle>
    <vehicle id="bus67" type="bus" depart="2010.00">
        <route edges="-218991073#3 218991073#3"/>
    </vehicle>
    <vehicle id="bus68" type="bus" depart="2040.00">
        <route edges="-218991073#2 218991073#2 218991073#3 218991073#4 373750633#0 373750633#1 408821095#1"/>
    </vehicle>
    <vehicle id="bus69" type="bus" depart="2070.00">
        <route edges="373750633#3 -840059238#0 -840059237#2 317468471 -218991136#0"/>
    </vehicle>
    <vehicle id="bus70" type="bus" depart="2100.00">
        <route edges="218991073#0 218991073#1 218991073#2 218991073#3 218991073#4 373750633#0 373750633#1 373750633#2 373750633#3 -840059238#0 -840059237#2 317468471"/>
    </vehicle>
    <vehicle id="bus72" type="bus" depart="2160.00">
        <route edges="183766545#0 323204750#3 -323204750#3"/>
    </vehicle>
    <vehicle id="bus73" type="bus" depart="2190.00">
        <route edges="218991117 218991073#4 373750633#0 373750633#1 373750633#2 373750633#3 373750633#4"/>
    </vehicle>
    <vehicle id="bus74" type="bus" depart="2220.00">
        <route edges="-408821095#1 373750633#2 373750633#3 373750633#4 840059241 840059240#0 840059240#1 -840059240#1 -840059240#0 -840059241"/>
    </vehicle>
    <vehicle id="bus75" type="bus" depart="2250.00">
        <route edges="97552125#0 -97552125#0 97552102 373750238#2 373750238#3"/>
    </vehicle>
    <vehicle id="bus76" type="bus" depart="2280.00">
        <route edges="183766545#2 -183766545#2 218991117 218991073#4 373750633#0 373750633#1 373750633#2 373750633#3 373750633#4 840059241 840059240#0 840059240#1 218991107#0"/>
    </vehicle>
    <vehicle id="bus77" type="bus" depart="2310.00">
        <route edges="-218991107#1 -218991107#0 840059240#2 317468833 840059237#1 317468471 218991136#1 408821095#0 -408821095#0"/>
    </vehicle>
    <vehicle id="bus78" type="bus" depart="2340.00">
        <route edges="-840066117 -97552125#0 97552102 373750238#2 373750238#3 373750235 -323204750#3 323204750#3"/>
    </vehicle>
    <vehicle id="bus79" type="bus" depart="2370.00">
        <route edges="-840059238#0 -840059237#2 317468471 218991136#1 408821095#0 -408821095#0"/>
    </vehicle>
    <vehicle id="bus80" type="bus" depart="2400.00">
        <route edges="-218991073#2 218991073#2 218991073#3 218991073#4 323204750#2 323204750#3 97552111#0 97552111#1 373750238#5 373750238#0 373750238#1"/>
    </vehicle>
    <vehicle id="bus84" type="bus" depart="2520.00">
        <route edges="-840059237#1 840059237#1 317468471 218991136#1 408821095#0 -408821095#0 -218991136#1"/>
    </vehicle>
    <vehicle id="bus85" type="bus" depart="2550.00">
        <route edges="840207176#1 -97552125#0 97552102 373750238#2 373750238#3 373750235 -323204750#3 -323204750#2 -323204750#1 -323204750#0 323204750#0 323204750#1"/>
    </vehicle>
    <vehicle id="bus86" type="bus" depart="2580.00">
        <route edges="218991073#0 218991073#1 218991073#2 218991073#3 218991073#4 373750633#0 373750633#1 373750633#2 373750633#3 -840059238#0 -840059237#2 840059237#2 840059238#0"/>
    </vehicle>
    <vehicle id="bus88" type="bus" depart="2640.00">
        <route edges="-218991086#1 -840066117 -97552125#0 97552102 373750238#2 373750238#3 373750235 -323204750#3 183766545#1 183766545#2"/>
    </vehicle>
    <vehicle id="bus89" type="bus" depart="2670.00">
        <route edges="183766545#0 -323204750#2 -218991073#4 -218991073#3 -218991073#2 -218991073#1 218991073#1"/>
    </vehicle>
    <vehicle id="bus90" type="bus" depart="2700.00">
        <route edges="373750241 373750240"/>
    </vehicle>
    <vehicle id="bus91" type="bus" depart="2730.00">
        <route edges="97552111#1 373750238#5 373750238#0 373750237 97552125#0 840066117 -218991086#0"/>
    </vehicle>
    <vehicle id="bus92" type="bus" depart="2760.00">
        <route edges="-97552125#0 97552125#0 840066117 -840066117"/>
    </vehicle>
    <vehicle id="bus93" type="bus" depart="2790.00">
        <route edges="840059240#2 317468833 840059237#1 -840059237#1"/>
    </vehicle>
    <vehicle id="bus94" type="bus" depart="2820.00">
        <route edges="-323204750#3 183766545#1 183766545#2 192225646#0"/>
    </vehicle>
    <vehicle id="bus95" type="bus" depart="2850.00">
        <route edges="183766545#0 -323204750#2 373750633#0 373750633#1 373750633#2 373750633#3 373750633#4 840059241 840059240#0 840059240#1 -840059240#1 -840059240#0"/>
    </vehicle>
    <vehicle id="bus97" type="bus" depart="2910.00">
        <route edges="183766545#2 -183766545#2 218991117 218991073#4 373750633#0 373750633#1 373750633#2 373750633#3 373750633#4 840059241"/>
    </vehicle>
    <vehicle id="bus99" type="bus" depart="2970.00">
        <route edges="97552125#0 -97552125#0 97552102 373750238#2 373750238#3 373750235 -323204750#3 -323204750#2 373750633#0 373750633#1 373750633#2 373750633#3 373750633#4 840059241 840059240#0 840059240#1 840059240#2"/>
    </vehicle>
    <vehicle id="bus100" type="bus" depart="3000.00">
        <route edges="97552102 373750241 97552081#0"/>
    </vehicle>
    <vehicle id="bus101" type="bus" depart="3030.00">
        <route edges="840059240#1 840059240#2 317468833 840059237#1 317468471 218991136#1 408821095#0 373750633#2 -317468483"/>
    </vehicle>
    <vehicle id="bus102" type="bus" depart="3060.00">
        <route edges="218991073#1 218991073#2 218991073#3 218991073#4 323204750#2 323204750#3 -323204750#3"/>
    </vehicle>
    <vehicle id="bus103" type="bus" depart="3090.00">
        <route edges="-97552125#0 97552102 373750238#2 373750238#3 373750235 -323204750#3 -323204750#2 -218991073#4 -218991073#3 -218991073#2 -218991073#1"/>
    </vehicle>
    <vehicle id="bus104" type="bus" depart="3120.00">
        <route edges="-97552081#0 373750240 373750238#3 373750238#4 373750238#5 373750238#0 373750237 97552125#0"/>
    </vehicle>
    <vehicle id="bus105" type="bus" depart="3150.00">
        <route edges="-840059240#0 -840059241 840059241 840059240#0 840059240#1 840059240#2 317468833 840059237#1 840059237#2 840059238#0"/>
    </vehicle>
    <vehicle id="bus106" type="bus" depart="3180.00">
        <route edges="192225646#0 -192225646#0 -183766545#2 -183766545#1 183766545#1"/>
    </vehicle>
    <vehicle id="bus107" type="bus" depart="3210.00">
        <route edges="97552081#1 -97552081#1 -97552081#0 373750240 373750238#3 373750238#4 373750238#5 373750238#0 373750237 97552125#0 97552125#1"/>
    </vehicle>
    <vehicle id="bus108" type="bus" depart="3240.00">
        <route edges="218991136#1 408821095#0 373750633#2 373750633#3"/>
    </vehicle>
    <vehicle id="bus109" type="bus" depart="3270.00">
        <route edges="-317468833 -840059240#2"/>
    </vehicle>
    <vehicle id="bus110" type="bus" depart="3300.00">
        <route edges="97552102 373750238#2 373750238#3 373750235 -323204750#3 -323204750#2 323204750#2"/>
    </vehicle>
    <vehicle id="bus111" type="bus" depart="3330.00">
        <route edges="218991117 218991073#4 373750633#0 373750633#1 -408821095#0 -218991136#1 218991136#1 408821095#0"/>
    </vehicle>
    <vehicle id="bus112" type="bus" depart="3360.00">
        <route edges="-218991073#1 218991073#1 218991073#2 218991073#3 218991073#4 323204750#2"/>
    </vehicle>
    <vehicle id="bus113" type="bus" depart="3390.00">
        <route edges="218991073#3 218991073#4 373750633#0 373750633#1 373750633#2 373750633#3 373750633#4 840059241 840059240#0 840059240#1 840059240#2 840059240#3 840059240#4"/>
    </vehicle>
    <vehicle id="bus115" type="bus" depart="3450.00">
        <route edges="-218991073#3 218991073#3 218991073#4 -323204750#1 -323204750#0"/>
    </vehicle>
    <vehicle id="bus118" type="bus" depart="3540.00">
        <route edges="840059244 373750633#1 373750633#2 373750633#3 -840059238#0 -840059237#2 -840059237#1"/>
    </vehicle>
</routes>
