<?xml version="1.0" encoding="UTF-8"?>

<!-- generated on 2024-05-29 15:56:20 by Eclipse SUMO netconvert Version 1.12.0
<configuration xmlns:xsi="http://www.w3.org/2001/XMLSchema-instance" xsi:noNamespaceSchemaLocation="http://sumo.dlr.de/xsd/netconvertConfiguration.xsd">

    <input>
        <type-files value="/home/ibrahimozer/sumo_example/ns-allinone-3.41/sumo/data/typemap/osmNetconvert.typ.xml"/>
        <osm-files value="map.osm"/>
    </input>

    <output>
        <output-file value="map.net.xml"/>
    </output>

    <projection>
        <proj.utm value="true"/>
    </projection>

    <report>
        <aggregate-warnings value="5"/>
    </report>

</configuration>
-->

<net version="1.9" junctionCornerDetail="5" limitTurnSpeed="5.50" xmlns:xsi="http://www.w3.org/2001/XMLSchema-instance" xsi:noNamespaceSchemaLocation="http://sumo.dlr.de/xsd/net_file.xsd">

    <location netOffset="-730139.75,-4478417.25" convBoundary="0.00,0.00,1305.31,864.30" origBoundary="29.713044,40.424423,29.728334,40.432147" projParameter="+proj=utm +zone=35 +ellps=WGS84 +datum=WGS84 +units=m +no_defs"/>

    <type id="highway.bridleway" priority="1" numLanes="1" speed="2.78" allow="pedestrian" oneway="1" width="2.00"/>
    <type id="highway.bus_guideway" priority="1" numLanes="1" speed="27.78" allow="bus" oneway="1"/>
    <type id="highway.cycleway" priority="1" numLanes="1" speed="8.33" allow="bicycle" oneway="0" width="1.00"/>
    <type id="highway.footway" priority="1" numLanes="1" speed="2.78" allow="pedestrian" oneway="1" width="2.00"/>
    <type id="highway.ford" priority="1" numLanes="1" speed="2.78" allow="army" oneway="0"/>
    <type id="highway.living_street" priority="2" numLanes="1" speed="2.78" disallow="tram rail_urban rail rail_electric rail_fast ship" oneway="0"/>
    <type id="highway.motorway" priority="14" numLanes="2" speed="39.44" allow="private emergency authority army vip passenger hov taxi bus coach delivery truck trailer motorcycle evehicle custom1 custom2" oneway="1"/>
    <type id="highway.motorway_link" priority="9" numLanes="1" speed="22.22" allow="private emergency authority army vip passenger hov taxi bus coach delivery truck trailer motorcycle evehicle custom1 custom2" oneway="1"/>
    <type id="highway.path" priority="1" numLanes="1" speed="2.78" allow="pedestrian bicycle" oneway="0" width="2.00"/>
    <type id="highway.pedestrian" priority="1" numLanes="1" speed="2.78" allow="pedestrian" oneway="1" width="2.00"/>
    <type id="highway.primary" priority="12" numLanes="2" speed="27.78" disallow="tram rail_urban rail rail_electric rail_fast ship" oneway="0"/>
    <type id="highway.primary_link" priority="7" numLanes="1" speed="22.22" disallow="tram rail_urban rail rail_electric rail_fast ship" oneway="0"/>
    <type id="highway.raceway" priority="15" numLanes="2" speed="83.33" allow="vip" oneway="0"/>
    <type id="highway.residential" priority="3" numLanes="1" speed="13.89" disallow="tram rail_urban rail rail_electric rail_fast ship" oneway="0"/>
    <type id="highway.secondary" priority="11" numLanes="1" speed="27.78" disallow="tram rail_urban rail rail_electric rail_fast ship" oneway="0"/>
    <type id="highway.secondary_link" priority="6" numLanes="1" speed="22.22" disallow="tram rail_urban rail rail_electric rail_fast ship" oneway="0"/>
    <type id="highway.service" priority="1" numLanes="1" speed="5.56" allow="pedestrian delivery bicycle" oneway="0"/>
    <type id="highway.stairs" priority="1" numLanes="1" speed="1.39" allow="pedestrian" oneway="1" width="2.00"/>
    <type id="highway.step" priority="1" numLanes="1" speed="1.39" allow="pedestrian" oneway="1" width="2.00"/>
    <type id="highway.steps" priority="1" numLanes="1" speed="1.39" allow="pedestrian" oneway="1" width="2.00"/>
    <type id="highway.tertiary" priority="10" numLanes="1" speed="22.22" disallow="tram rail_urban rail rail_electric rail_fast ship" oneway="0"/>
    <type id="highway.tertiary_link" priority="5" numLanes="1" speed="22.22" disallow="tram rail_urban rail rail_electric rail_fast ship" oneway="0"/>
    <type id="highway.track" priority="1" numLanes="1" speed="5.56" allow="pedestrian motorcycle moped bicycle" oneway="0"/>
    <type id="highway.trunk" priority="13" numLanes="2" speed="27.78" disallow="pedestrian bicycle tram rail_urban rail rail_electric rail_fast ship" oneway="0"/>
    <type id="highway.trunk_link" priority="8" numLanes="1" speed="22.22" disallow="pedestrian bicycle tram rail_urban rail rail_electric rail_fast ship" oneway="0"/>
    <type id="highway.unclassified" priority="4" numLanes="1" speed="13.89" disallow="tram rail_urban rail rail_electric rail_fast ship" oneway="0"/>
    <type id="highway.unsurfaced" priority="1" numLanes="1" speed="8.33" disallow="tram rail_urban rail rail_electric rail_fast ship" oneway="0"/>
    <type id="railway.highspeed" priority="21" numLanes="1" speed="69.44" allow="rail_fast" oneway="1"/>
    <type id="railway.light_rail" priority="19" numLanes="1" speed="27.78" allow="rail_urban" oneway="1"/>
    <type id="railway.preserved" priority="16" numLanes="1" speed="27.78" allow="rail" oneway="1"/>
    <type id="railway.rail" priority="20" numLanes="1" speed="44.44" allow="rail" oneway="1"/>
    <type id="railway.subway" priority="18" numLanes="1" speed="27.78" allow="rail_urban" oneway="1"/>
    <type id="railway.tram" priority="17" numLanes="1" speed="13.89" allow="tram" oneway="1"/>

    <edge id=":1129429313_0" function="internal">
        <lane id=":1129429313_0_0" index="0" disallow="tram rail_urban rail rail_electric rail_fast ship" speed="27.78" length="3.83" shape="551.88,561.61 550.77,561.38 549.99,561.30 549.21,561.31 548.07,561.37"/>
    </edge>
    <edge id=":1129429313_1" function="internal">
        <lane id=":1129429313_1_0" index="0" disallow="tram rail_urban rail rail_electric rail_fast ship" speed="4.96" length="3.14" shape="551.88,561.61 548.99,560.71 548.90,560.63"/>
    </edge>
    <edge id=":1129429313_4" function="internal">
        <lane id=":1129429313_4_0" index="0" disallow="tram rail_urban rail rail_electric rail_fast ship" speed="4.96" length="5.42" shape="548.90,560.63 547.92,559.74 548.67,558.69 551.23,557.56"/>
    </edge>
    <edge id=":1129429313_2" function="internal">
        <lane id=":1129429313_2_0" index="0" disallow="tram rail_urban rail rail_electric rail_fast ship" speed="27.78" length="3.39" shape="547.92,558.18 548.92,558.12 549.61,558.04 550.28,557.87 551.23,557.56"/>
    </edge>
    <edge id=":1129429313_3" function="internal">
        <lane id=":1129429313_3_0" index="0" disallow="tram rail_urban rail rail_electric rail_fast ship" speed="3.65" length="1.44" shape="547.92,558.18 549.15,558.92"/>
    </edge>
    <edge id=":1129429313_5" function="internal">
        <lane id=":1129429313_5_0" index="0" disallow="tram rail_urban rail rail_electric rail_fast ship" speed="3.65" length="3.23" shape="549.15,558.92 549.59,559.70 549.23,560.52 548.07,561.37"/>
    </edge>
    <edge id=":1129429777_0" function="internal">
        <lane id=":1129429777_0_0" index="0" disallow="tram rail_urban rail rail_electric rail_fast ship" speed="12.93" length="4.21" shape="570.76,584.52 570.67,583.46 570.54,582.74 570.29,582.05 569.83,581.09"/>
        <lane id=":1129429777_0_1" index="1" disallow="tram rail_urban rail rail_electric rail_fast ship" speed="14.93" length="4.21" shape="573.95,584.29 573.83,582.87 573.65,581.90 573.32,580.97 572.70,579.68"/>
    </edge>
    <edge id=":1129429777_2" function="internal">
        <lane id=":1129429777_2_0" index="0" disallow="tram rail_urban rail rail_electric rail_fast ship" speed="3.65" length="1.44" shape="573.95,584.29 574.66,583.04"/>
    </edge>
    <edge id=":1129429777_6" function="internal">
        <lane id=":1129429777_6_0" index="0" disallow="tram rail_urban rail rail_electric rail_fast ship" speed="3.65" length="3.23" shape="574.66,583.04 575.43,582.58 576.26,582.92 577.14,584.06"/>
    </edge>
    <edge id=":1129429777_3" function="internal">
        <lane id=":1129429777_3_0" index="0" disallow="tram rail_urban rail rail_electric rail_fast ship" speed="15.62" length="4.78" shape="580.66,579.68 580.34,580.88 580.22,581.72 580.24,582.58 580.33,583.83"/>
        <lane id=":1129429777_3_1" index="1" disallow="tram rail_urban rail rail_electric rail_fast ship" speed="17.59" length="4.78" shape="577.59,578.77 577.18,580.30 577.01,581.38 577.02,582.47 577.14,584.06"/>
    </edge>
    <edge id=":1129429777_5" function="internal">
        <lane id=":1129429777_5_0" index="0" disallow="tram rail_urban rail rail_electric rail_fast ship" speed="5.08" length="3.43" shape="577.59,578.77 576.53,581.38 576.07,581.79"/>
    </edge>
    <edge id=":1129429777_7" function="internal">
        <lane id=":1129429777_7_0" index="0" disallow="tram rail_urban rail rail_electric rail_fast ship" speed="5.08" length="4.89" shape="576.07,581.79 575.37,582.40 574.09,581.83 572.70,579.68"/>
    </edge>
    <edge id=":1129429887_0" function="internal">
        <lane id=":1129429887_0_0" index="0" disallow="tram rail_urban rail rail_electric rail_fast ship" speed="14.86" length="8.26" shape="564.47,547.07 565.91,545.20 566.40,543.62 566.59,541.85 567.13,539.44"/>
        <lane id=":1129429887_0_1" index="1" disallow="tram rail_urban rail rail_electric rail_fast ship" speed="15.46" length="8.95" shape="564.47,547.07 566.47,545.30 567.98,544.13 569.16,542.77 570.18,540.41"/>
    </edge>
    <edge id=":1129429887_2" function="internal">
        <lane id=":1129429887_2_0" index="0" disallow="tram rail_urban rail rail_electric rail_fast ship" speed="11.59" length="8.48" shape="564.47,547.07 566.56,545.22 568.30,544.35 570.30,544.00 573.15,543.70"/>
        <lane id=":1129429887_2_1" index="1" disallow="tram rail_urban rail rail_electric rail_fast ship" speed="7.74" length="8.48" shape="566.75,549.31 568.37,547.92 570.00,547.01 571.63,546.59 573.27,546.67"/>
    </edge>
    <edge id=":1129430436_0" function="internal">
        <lane id=":1129430436_0_0" index="0" disallow="tram rail_urban rail rail_electric rail_fast ship" speed="21.64" length="4.38" shape="577.81,532.18 577.81,533.34 577.64,534.16 577.59,534.95 577.90,536.01"/>
        <lane id=":1129430436_0_1" index="1" disallow="tram rail_urban rail rail_electric rail_fast ship" speed="24.13" length="4.38" shape="574.63,532.56 574.66,534.00 574.54,535.02 574.55,536.00 574.99,537.34"/>
    </edge>
    <edge id=":1129430436_2" function="internal">
        <lane id=":1129430436_2_0" index="0" disallow="tram rail_urban rail rail_electric rail_fast ship" speed="3.65" length="1.44" shape="574.63,532.56 573.98,533.84"/>
    </edge>
    <edge id=":1129430436_6" function="internal">
        <lane id=":1129430436_6_0" index="0" disallow="tram rail_urban rail rail_electric rail_fast ship" speed="3.65" length="3.23" shape="573.98,533.84 573.23,534.33 572.39,534.03 571.45,532.93"/>
    </edge>
    <edge id=":1129430436_3" function="internal">
        <lane id=":1129430436_3_0" index="0" disallow="tram rail_urban rail rail_electric rail_fast ship" speed="11.29" length="4.34" shape="567.93,536.90 568.25,535.87 568.39,535.13 568.39,534.38 568.27,533.31"/>
        <lane id=":1129430436_3_1" index="1" disallow="tram rail_urban rail rail_electric rail_fast ship" speed="13.18" length="4.34" shape="570.98,537.87 571.41,536.45 571.61,535.44 571.61,534.41 571.45,532.93"/>
    </edge>
    <edge id=":1129430436_5" function="internal">
        <lane id=":1129430436_5_0" index="0" disallow="tram rail_urban rail rail_electric rail_fast ship" speed="4.68" length="2.49" shape="570.98,537.87 571.89,535.77 572.04,535.64"/>
    </edge>
    <edge id=":1129430436_7" function="internal">
        <lane id=":1129430436_7_0" index="0" disallow="tram rail_urban rail rail_electric rail_fast ship" speed="4.68" length="4.34" shape="572.04,535.64 572.86,534.98 573.89,535.50 574.99,537.34"/>
    </edge>
    <edge id=":1129430499_0" function="internal">
        <lane id=":1129430499_0_0" index="0" disallow="tram rail_urban rail rail_electric rail_fast ship" speed="27.78" length="11.02" shape="585.41,565.33 583.81,568.15 583.09,570.25 582.63,572.49 581.84,575.67"/>
        <lane id=":1129430499_0_1" index="1" disallow="tram rail_urban rail rail_electric rail_fast ship" speed="27.78" length="11.67" shape="585.41,565.33 583.28,568.07 581.52,569.79 580.05,571.64 578.77,574.76"/>
    </edge>
    <edge id=":1129430499_2" function="internal">
        <lane id=":1129430499_2_0" index="0" disallow="tram rail_urban rail rail_electric rail_fast ship" speed="10.04" length="11.28" shape="585.41,565.33 583.25,568.07 580.83,570.05 578.13,571.26 575.16,571.70"/>
        <lane id=":1129430499_2_1" index="1" disallow="tram rail_urban rail rail_electric rail_fast ship" speed="9.01" length="11.28" shape="582.72,563.60 581.04,565.71 579.11,567.23 576.92,568.17 574.49,568.51"/>
    </edge>
    <edge id=":1129431564_0" function="internal">
        <lane id=":1129431564_0_0" index="0" disallow="tram rail_urban rail rail_electric rail_fast ship" speed="20.61" length="4.43" shape="587.58,556.29 587.69,557.76 587.70,558.77 587.56,559.76 587.22,561.19"/>
        <lane id=":1129431564_0_1" index="1" disallow="tram rail_urban rail rail_electric rail_fast ship" speed="18.32" length="4.43" shape="584.39,556.54 584.48,557.69 584.49,558.49 584.38,559.27 584.12,560.40"/>
    </edge>
    <edge id=":1474270295_0" function="internal">
        <lane id=":1474270295_0_0" index="0" disallow="tram rail_urban rail rail_electric rail_fast ship" speed="3.65" length="4.67" shape="589.85,777.22 589.11,778.46 588.33,778.89 587.51,778.53 586.66,777.37"/>
    </edge>
    <edge id=":1941733168_0" function="internal">
        <lane id=":1941733168_0_0" index="0" disallow="tram rail_urban rail rail_electric rail_fast ship" speed="3.65" length="4.67" shape="106.26,220.16 107.14,219.01 107.96,218.66 108.73,219.11 109.46,220.36"/>
    </edge>
    <edge id=":2027874637_0" function="internal">
        <lane id=":2027874637_0_0" index="0" disallow="tram rail_urban rail rail_electric rail_fast ship" speed="3.65" length="4.67" shape="379.99,355.09 380.79,353.89 381.59,353.49 382.39,353.90 383.19,355.10"/>
    </edge>
    <edge id=":2027874639_0" function="internal">
        <lane id=":2027874639_0_0" index="0" disallow="tram rail_urban rail rail_electric rail_fast ship" speed="13.89" length="14.43" shape="389.62,496.12 375.21,496.87"/>
    </edge>
    <edge id=":2027874639_1" function="internal">
        <lane id=":2027874639_1_0" index="0" disallow="tram rail_urban rail rail_electric rail_fast ship" speed="7.92" length="4.12" shape="389.62,496.12 385.67,495.77 385.53,495.69"/>
    </edge>
    <edge id=":2027874639_2" function="internal">
        <lane id=":2027874639_2_0" index="0" disallow="tram rail_urban rail rail_electric rail_fast ship" speed="3.65" length="1.44" shape="389.62,496.12 388.38,495.39"/>
    </edge>
    <edge id=":2027874639_9" function="internal">
        <lane id=":2027874639_9_0" index="0" disallow="tram rail_urban rail rail_electric rail_fast ship" speed="7.92" length="10.25" shape="385.53,495.69 382.84,494.23 381.13,491.50 380.53,487.59"/>
    </edge>
    <edge id=":2027874639_10" function="internal">
        <lane id=":2027874639_10_0" index="0" disallow="tram rail_urban rail rail_electric rail_fast ship" speed="3.65" length="3.23" shape="388.38,495.39 387.93,494.61 388.29,493.79 389.44,492.93"/>
    </edge>
    <edge id=":2027874639_3" function="internal">
        <lane id=":2027874639_3_0" index="0" disallow="tram rail_urban rail rail_electric rail_fast ship" speed="6.41" length="9.04" shape="383.73,487.56 384.10,490.02 385.18,491.74 386.96,492.70 389.44,492.93"/>
    </edge>
    <edge id=":2027874639_4" function="internal">
        <lane id=":2027874639_4_0" index="0" disallow="tram rail_urban rail rail_electric rail_fast ship" speed="8.14" length="14.26" shape="383.73,487.56 383.23,491.47 381.64,494.33 378.97,496.12 375.21,496.87"/>
    </edge>
    <edge id=":2027874639_5" function="internal">
        <lane id=":2027874639_5_0" index="0" disallow="tram rail_urban rail rail_electric rail_fast ship" speed="3.65" length="4.67" shape="383.73,487.56 382.94,488.76 382.14,489.17 381.34,488.78 380.53,487.59"/>
    </edge>
    <edge id=":2027874639_6" function="internal">
        <lane id=":2027874639_6_0" index="0" disallow="tram rail_urban rail rail_electric rail_fast ship" speed="6.67" length="9.25" shape="375.05,493.67 377.47,493.19 379.19,492.01 380.21,490.15 380.53,487.59"/>
    </edge>
    <edge id=":2027874639_7" function="internal">
        <lane id=":2027874639_7_0" index="0" disallow="tram rail_urban rail rail_electric rail_fast ship" speed="13.89" length="14.41" shape="375.05,493.67 389.44,492.93"/>
    </edge>
    <edge id=":2027874639_8" function="internal">
        <lane id=":2027874639_8_0" index="0" disallow="tram rail_urban rail rail_electric rail_fast ship" speed="3.65" length="1.44" shape="375.05,493.67 376.29,494.41"/>
    </edge>
    <edge id=":2027874639_11" function="internal">
        <lane id=":2027874639_11_0" index="0" disallow="tram rail_urban rail rail_electric rail_fast ship" speed="3.65" length="3.23" shape="376.29,494.41 376.73,495.19 376.37,496.01 375.21,496.87"/>
    </edge>
    <edge id=":2100533679_0" function="internal">
        <lane id=":2100533679_0_0" index="0" disallow="tram rail_urban rail rail_electric rail_fast ship" speed="6.43" length="9.03" shape="455.87,571.53 455.48,569.07 454.40,567.35 452.62,566.38 450.15,566.14"/>
    </edge>
    <edge id=":2100533679_1" function="internal">
        <lane id=":2100533679_1_0" index="0" disallow="tram rail_urban rail rail_electric rail_fast ship" speed="8.12" length="14.25" shape="455.87,571.53 456.36,567.62 457.94,564.77 460.62,562.98 464.38,562.24"/>
    </edge>
    <edge id=":2100533679_2" function="internal">
        <lane id=":2100533679_2_0" index="0" disallow="tram rail_urban rail rail_electric rail_fast ship" speed="3.65" length="4.67" shape="455.87,571.53 456.65,570.32 457.45,569.91 458.25,570.30 459.07,571.49"/>
    </edge>
    <edge id=":2100533679_3" function="internal">
        <lane id=":2100533679_3_0" index="0" disallow="tram rail_urban rail rail_electric rail_fast ship" speed="6.65" length="9.22" shape="464.53,565.44 462.12,565.92 460.40,567.09 459.38,568.94 459.07,571.49"/>
    </edge>
    <edge id=":2100533679_4" function="internal">
        <lane id=":2100533679_4_0" index="0" disallow="tram rail_urban rail rail_electric rail_fast ship" speed="27.78" length="14.41" shape="464.53,565.44 450.15,566.14"/>
    </edge>
    <edge id=":2100533679_5" function="internal">
        <lane id=":2100533679_5_0" index="0" disallow="tram rail_urban rail rail_electric rail_fast ship" speed="3.65" length="1.44" shape="464.53,565.44 463.30,564.70"/>
    </edge>
    <edge id=":2100533679_9" function="internal">
        <lane id=":2100533679_9_0" index="0" disallow="tram rail_urban rail rail_electric rail_fast ship" speed="3.65" length="3.23" shape="463.30,564.70 462.86,563.92 463.22,563.10 464.38,562.24"/>
    </edge>
    <edge id=":2100533679_6" function="internal">
        <lane id=":2100533679_6_0" index="0" disallow="tram rail_urban rail rail_electric rail_fast ship" speed="27.78" length="14.41" shape="449.99,562.95 464.38,562.24"/>
    </edge>
    <edge id=":2100533679_7" function="internal">
        <lane id=":2100533679_7_0" index="0" disallow="tram rail_urban rail rail_electric rail_fast ship" speed="7.93" length="4.10" shape="449.99,562.95 453.92,563.32 454.05,563.39"/>
    </edge>
    <edge id=":2100533679_8" function="internal">
        <lane id=":2100533679_8_0" index="0" disallow="tram rail_urban rail rail_electric rail_fast ship" speed="3.65" length="1.44" shape="449.99,562.95 451.23,563.69"/>
    </edge>
    <edge id=":2100533679_10" function="internal">
        <lane id=":2100533679_10_0" index="0" disallow="tram rail_urban rail rail_electric rail_fast ship" speed="7.93" length="10.24" shape="454.05,563.39 456.74,564.86 458.46,567.59 459.07,571.49"/>
    </edge>
    <edge id=":2100533679_11" function="internal">
        <lane id=":2100533679_11_0" index="0" disallow="tram rail_urban rail rail_electric rail_fast ship" speed="3.65" length="3.23" shape="451.23,563.69 451.67,564.47 451.31,565.29 450.15,566.14"/>
    </edge>
    <edge id=":2100533680_0" function="internal">
        <lane id=":2100533680_0_0" index="0" disallow="tram rail_urban rail rail_electric rail_fast ship" speed="6.44" length="9.03" shape="263.54,581.03 263.15,578.57 262.06,576.86 260.28,575.88 257.81,575.64"/>
    </edge>
    <edge id=":2100533680_1" function="internal">
        <lane id=":2100533680_1_0" index="0" disallow="tram rail_urban rail rail_electric rail_fast ship" speed="8.11" length="14.24" shape="263.54,581.03 264.02,577.13 265.60,574.28 268.27,572.49 272.03,571.75"/>
    </edge>
    <edge id=":2100533680_2" function="internal">
        <lane id=":2100533680_2_0" index="0" disallow="tram rail_urban rail rail_electric rail_fast ship" speed="3.65" length="4.67" shape="263.54,581.03 264.32,579.81 265.12,579.40 265.92,579.79 266.74,580.98"/>
    </edge>
    <edge id=":2100533680_3" function="internal">
        <lane id=":2100533680_3_0" index="0" disallow="tram rail_urban rail rail_electric rail_fast ship" speed="6.64" length="9.20" shape="272.19,574.95 269.77,575.43 268.06,576.59 267.05,578.44 266.74,580.98"/>
    </edge>
    <edge id=":2100533680_4" function="internal">
        <lane id=":2100533680_4_0" index="0" disallow="tram rail_urban rail rail_electric rail_fast ship" speed="27.78" length="14.40" shape="272.19,574.95 257.81,575.64"/>
    </edge>
    <edge id=":2100533680_5" function="internal">
        <lane id=":2100533680_5_0" index="0" disallow="tram rail_urban rail rail_electric rail_fast ship" speed="3.65" length="1.44" shape="272.19,574.95 270.95,574.21"/>
    </edge>
    <edge id=":2100533680_9" function="internal">
        <lane id=":2100533680_9_0" index="0" disallow="tram rail_urban rail rail_electric rail_fast ship" speed="3.65" length="3.23" shape="270.95,574.21 270.52,573.43 270.88,572.61 272.03,571.75"/>
    </edge>
    <edge id=":2100533680_6" function="internal">
        <lane id=":2100533680_6_0" index="0" disallow="tram rail_urban rail rail_electric rail_fast ship" speed="27.78" length="14.39" shape="257.66,572.45 272.03,571.75"/>
    </edge>
    <edge id=":2100533680_7" function="internal">
        <lane id=":2100533680_7_0" index="0" disallow="tram rail_urban rail rail_electric rail_fast ship" speed="7.94" length="4.08" shape="257.66,572.45 261.58,572.82 261.71,572.89"/>
    </edge>
    <edge id=":2100533680_8" function="internal">
        <lane id=":2100533680_8_0" index="0" disallow="tram rail_urban rail rail_electric rail_fast ship" speed="3.65" length="1.44" shape="257.66,572.45 258.89,573.19"/>
    </edge>
    <edge id=":2100533680_10" function="internal">
        <lane id=":2100533680_10_0" index="0" disallow="tram rail_urban rail rail_electric rail_fast ship" speed="7.94" length="10.23" shape="261.71,572.89 264.40,574.37 266.12,577.09 266.74,580.98"/>
    </edge>
    <edge id=":2100533680_11" function="internal">
        <lane id=":2100533680_11_0" index="0" disallow="tram rail_urban rail rail_electric rail_fast ship" speed="3.65" length="3.23" shape="258.89,573.19 259.33,573.97 258.97,574.79 257.81,575.64"/>
    </edge>
    <edge id=":2100533682_0" function="internal">
        <lane id=":2100533682_0_0" index="0" disallow="tram rail_urban rail rail_electric rail_fast ship" speed="6.48" length="9.04" shape="457.09,645.57 456.59,643.14 455.44,641.46 453.62,640.53 451.15,640.36"/>
    </edge>
    <edge id=":2100533682_1" function="internal">
        <lane id=":2100533682_1_0" index="0" disallow="tram rail_urban rail rail_electric rail_fast ship" speed="13.89" length="14.63" shape="457.09,645.57 456.57,630.95"/>
    </edge>
    <edge id=":2100533682_2" function="internal">
        <lane id=":2100533682_2_0" index="0" disallow="tram rail_urban rail rail_electric rail_fast ship" speed="7.99" length="14.30" shape="457.09,645.57 457.42,641.67 458.92,638.83 461.61,637.04 465.48,636.30"/>
    </edge>
    <edge id=":2100533682_3" function="internal">
        <lane id=":2100533682_3_0" index="0" disallow="tram rail_urban rail rail_electric rail_fast ship" speed="3.65" length="4.67" shape="457.09,645.57 457.82,644.33 458.59,643.88 459.42,644.23 460.29,645.38"/>
    </edge>
    <edge id=":2100533682_4" function="internal">
        <lane id=":2100533682_4_0" index="0" disallow="tram rail_urban rail rail_electric rail_fast ship" speed="6.49" length="9.09" shape="465.63,639.50 463.17,639.97 461.45,641.10 460.49,642.91 460.29,645.38"/>
    </edge>
    <edge id=":2100533682_5" function="internal">
        <lane id=":2100533682_5_0" index="0" disallow="tram rail_urban rail rail_electric rail_fast ship" speed="13.89" length="14.51" shape="465.63,639.50 451.15,640.36"/>
    </edge>
    <edge id=":2100533682_6" function="internal">
        <lane id=":2100533682_6_0" index="0" disallow="tram rail_urban rail rail_electric rail_fast ship" speed="7.94" length="3.94" shape="465.63,639.50 461.70,639.12"/>
    </edge>
    <edge id=":2100533682_7" function="internal">
        <lane id=":2100533682_7_0" index="0" disallow="tram rail_urban rail rail_electric rail_fast ship" speed="3.65" length="1.44" shape="465.63,639.50 464.39,638.76"/>
    </edge>
    <edge id=":2100533682_16" function="internal">
        <lane id=":2100533682_16_0" index="0" disallow="tram rail_urban rail rail_electric rail_fast ship" speed="7.94" length="10.38" shape="461.70,639.12 458.88,637.57 457.17,634.85 456.57,630.95"/>
    </edge>
    <edge id=":2100533682_17" function="internal">
        <lane id=":2100533682_17_0" index="0" disallow="tram rail_urban rail rail_electric rail_fast ship" speed="3.65" length="3.23" shape="464.39,638.76 463.96,637.98 464.32,637.16 465.48,636.30"/>
    </edge>
    <edge id=":2100533682_8" function="internal">
        <lane id=":2100533682_8_0" index="0" disallow="tram rail_urban rail rail_electric rail_fast ship" speed="6.43" length="9.03" shape="459.76,630.91 460.15,633.37 461.23,635.09 463.01,636.07 465.48,636.30"/>
    </edge>
    <edge id=":2100533682_9" function="internal">
        <lane id=":2100533682_9_0" index="0" disallow="tram rail_urban rail rail_electric rail_fast ship" speed="13.89" length="14.48" shape="459.76,630.91 460.29,645.38"/>
    </edge>
    <edge id=":2100533682_10" function="internal">
        <lane id=":2100533682_10_0" index="0" disallow="tram rail_urban rail rail_electric rail_fast ship" speed="8.24" length="14.40" shape="459.76,630.91 459.27,634.81 457.66,637.68 454.96,639.53 451.15,640.36"/>
    </edge>
    <edge id=":2100533682_11" function="internal">
        <lane id=":2100533682_11_0" index="0" disallow="tram rail_urban rail rail_electric rail_fast ship" speed="3.65" length="4.67" shape="459.76,630.91 458.98,632.12 458.18,632.53 457.38,632.14 456.57,630.95"/>
    </edge>
    <edge id=":2100533682_12" function="internal">
        <lane id=":2100533682_12_0" index="0" disallow="tram rail_urban rail rail_electric rail_fast ship" speed="6.79" length="9.46" shape="450.92,637.17 453.41,636.63 455.19,635.41 456.24,633.51 456.57,630.95"/>
    </edge>
    <edge id=":2100533682_13" function="internal">
        <lane id=":2100533682_13_0" index="0" disallow="tram rail_urban rail rail_electric rail_fast ship" speed="13.89" length="14.59" shape="450.92,637.17 465.48,636.30"/>
    </edge>
    <edge id=":2100533682_14" function="internal">
        <lane id=":2100533682_14_0" index="0" disallow="tram rail_urban rail rail_electric rail_fast ship" speed="7.98" length="4.17" shape="450.92,637.17 454.82,637.44 455.05,637.56"/>
    </edge>
    <edge id=":2100533682_15" function="internal">
        <lane id=":2100533682_15_0" index="0" disallow="tram rail_urban rail rail_electric rail_fast ship" speed="3.65" length="1.44" shape="450.92,637.17 452.17,637.88"/>
    </edge>
    <edge id=":2100533682_18" function="internal">
        <lane id=":2100533682_18_0" index="0" disallow="tram rail_urban rail rail_electric rail_fast ship" speed="7.98" length="10.07" shape="455.05,637.56 457.68,638.90 459.50,641.55 460.29,645.38"/>
    </edge>
    <edge id=":2100533682_19" function="internal">
        <lane id=":2100533682_19_0" index="0" disallow="tram rail_urban rail rail_electric rail_fast ship" speed="3.65" length="3.23" shape="452.17,637.88 452.63,638.65 452.29,639.48 451.15,640.36"/>
    </edge>
    <edge id=":2100533691_0" function="internal">
        <lane id=":2100533691_0_0" index="0" disallow="tram rail_urban rail rail_electric rail_fast ship" speed="3.65" length="4.67" shape="464.01,706.47 463.29,707.72 462.51,708.16 461.69,707.81 460.82,706.66"/>
    </edge>
    <edge id=":2281968895_0" function="internal">
        <lane id=":2281968895_0_0" index="0" disallow="tram rail_urban rail rail_electric rail_fast ship" speed="3.65" length="4.67" shape="831.48,184.53 832.22,183.29 833.00,182.85 833.82,183.21 834.68,184.37"/>
    </edge>
    <edge id=":2281968965_0" function="internal">
        <lane id=":2281968965_0_0" index="0" disallow="tram rail_urban rail rail_electric rail_fast ship" speed="3.65" length="4.67" shape="796.37,256.11 797.11,254.87 797.89,254.43 798.71,254.79 799.57,255.95"/>
    </edge>
    <edge id=":2281968969_0" function="internal">
        <lane id=":2281968969_0_0" index="0" disallow="tram rail_urban rail rail_electric rail_fast ship" speed="3.65" length="4.67" shape="714.35,260.37 715.06,259.12 715.83,258.66 716.66,259.01 717.54,260.15"/>
    </edge>
    <edge id=":2281968976_0" function="internal">
        <lane id=":2281968976_0_0" index="0" disallow="tram rail_urban rail rail_electric rail_fast ship" speed="3.65" length="4.67" shape="645.99,262.73 646.78,261.52 647.57,261.11 648.38,261.50 649.19,262.69"/>
    </edge>