<?xml version="1.0" encoding="UTF-8"?>

<!-- generated on 2024-05-29 15:56:20 by Eclipse SUMO polyconvert Version 1.12.0
<configuration xmlns:xsi="http://www.w3.org/2001/XMLSchema-instance" xsi:noNamespaceSchemaLocation="http://sumo.dlr.de/xsd/polyconvertConfiguration.xsd">

    <input>
        <net-file value="map.net.xml"/>
        <osm-files value="map.osm"/>
        <type-file value="/home/ibrahimozer/sumo_example/ns-allinone-3.41/sumo/data/typemap/osmPolyconvert.typ.xml"/>
    </input>

    <output>
        <output-file value="map.poly.xml"/>
    </output>

    <processing>
        <poi-layer-offset value="5"/>
    </processing>

</configuration>
-->

<additional xmlns:xsi="http://www.w3.org/2001/XMLSchema-instance" xsi:noNamespaceSchemaLocation="http://sumo.dlr.de/xsd/additional_file.xsd">
    <location netOffset="-730139.75,-4478417.25" convBoundary="-0.00,0.00,1305.31,864.30" origBoundary="29.713044,40.424423,29.728334,40.432147" projParameter="+proj=utm +zone=35 +ellps=WGS84 +datum=WGS84 +units=m +no_defs"/>

    <poly id="192225327" type="amenity" color="237,199,199" fill="1" layer="-1.00" shape="595.281184,543.899685 593.147898,520.531264 609.917429,519.492215 614.554121,520.590749 614.434729,518.953548 619.442315,518.763362 620.035022,524.882332 622.253544,525.639662 623.593374,526.803299 624.623884,530.013199 623.673695,532.739795 620.571352,535.311176 621.052261,542.026770 595.281184,543.899685"/>
    <poly id="192225327#1" type="building" color="255,230,230" fill="1" layer="-1.00" shape="595.281184,543.899685 593.147898,520.531264 609.917429,519.492215 614.554121,520.590749 614.434729,518.953548 619.442315,518.763362 620.035022,524.882332 622.253544,525.639662 623.593374,526.803299 624.623884,530.013199 623.673695,532.739795 620.571352,535.311176 621.052261,542.026770 595.281184,543.899685"/>
    <poly id="310138771" type="amenity" color="237,199,199" fill="1" layer="-1.00" shape="873.136923,624.785366 891.000208,624.347432 890.013389,591.924258 871.759774,592.350158 873.136923,624.785366"/>
    <poly id="310138771#1" type="building" color="255,230,230" fill="1" layer="-1.00" shape="873.136923,624.785366 891.000208,624.347432 890.013389,591.924258 871.759774,592.350158 873.136923,624.785366"/>
    <poly id="310139582" type="amenity" color="237,199,199" fill="1" layer="-1.00" shape="573.557049,411.926361 585.501235,413.161092 586.656569,404.051187 587.468242,395.897472 575.293592,394.700090 573.557049,411.926361"/>
    <poly id="310139582#1" type="building" color="255,230,230" fill="1" layer="-1.00" shape="573.557049,411.926361 585.501235,413.161092 586.656569,404.051187 587.468242,395.897472 575.293592,394.700090 573.557049,411.926361"/>
    <poly id="310140795" type="building" color="255,230,230" fill="1" layer="-1.00" shape="849.459160,404.340162 870.021554,403.963165 870.050050,413.776313 860.469859,413.814183 860.484410,421.326630 870.093810,421.167424 870.223349,431.283725 849.737043,431.674176 849.657886,422.126165 848.436195,422.088484 848.361673,415.418733 849.678742,415.392681 849.459160,404.340162"/>
    <poly id="310140795#1" type="historic" color="128,255,128" fill="1" layer="-1.00" shape="849.459160,404.340162 870.021554,403.963165 870.050050,413.776313 860.469859,413.814183 860.484410,421.326630 870.093810,421.167424 870.223349,431.283725 849.737043,431.674176 849.657886,422.126165 848.436195,422.088484 848.361673,415.418733 849.678742,415.392681 849.459160,404.340162"/>
    <poly id="408818520" type="tourism" color="207,245,201" fill="1" layer="-2.00" shape="591.410893,553.481562 654.663993,551.641326 651.928083,486.660586 580.369973,490.134127 584.388436,526.184298 591.410893,553.481562"/>
    <poly id="408818659" type="building" color="255,230,230" fill="1" layer="-1.00" shape="678.011118,589.565217 677.782984,576.578896 730.112858,572.069037 729.887996,579.362959 696.817781,582.766259 696.004036,587.952895 678.011118,589.565217"/>
    <poly id="408821873" type="amenity" color="237,199,199" fill="1" layer="-1.00" shape="611.750335,442.917605 627.957983,443.583693 627.661389,447.697253 640.246053,448.262843 641.028364,439.685953 647.245854,439.366381 647.690607,424.933967 616.536321,422.084867 616.557883,426.897199 612.426203,426.769895 611.750335,442.917605"/>
    <poly id="408821873#1" type="building" color="255,230,230" fill="1" layer="-1.00" shape="611.750335,442.917605 627.957983,443.583693 627.661389,447.697253 640.246053,448.262843 641.028364,439.685953 647.245854,439.366381 647.690607,424.933967 616.536321,422.084867 616.557883,426.897199 612.426203,426.769895 611.750335,442.917605"/>
    <poly id="408822809" type="historic" color="128,255,128" fill="1" layer="-1.00" shape="657.727499,452.235294 663.595017,452.249434 666.182296,446.828532 691.770715,445.383590 691.696803,447.781591 723.827220,447.060683 722.968427,418.997606 708.345108,417.346699 708.973559,408.253898 653.557834,413.935701 655.289197,430.502083 657.727499,452.235294"/>
    <poly id="408913212" type="amenity" color="237,199,199" fill="1" layer="-1.00" shape="853.901013,566.485174 853.752136,549.011851 871.563292,547.516569 872.366143,558.653761 865.937350,560.044529 864.826850,566.588829 853.901013,566.485174"/>
    <poly id="408913212#1" type="building" color="255,230,230" fill="1" layer="-1.00" shape="853.901013,566.485174 853.752136,549.011851 871.563292,547.516569 872.366143,558.653761 865.937350,560.044529 864.826850,566.588829 853.901013,566.485174"/>
    <poly id="408913282" type="amenity" color="237,199,199" fill="1" layer="-1.00" shape="864.998706,636.446842 864.993071,631.123816 874.124904,631.572200 874.318965,636.567666 864.998706,636.446842"/>
    <poly id="408913781" type="landuse" color="194,194,130" fill="1" layer="-3.00" shape="869.333550,624.479128 872.416647,624.185301 871.090086,592.862896 868.596123,593.052662 869.333550,624.479128"/>
    <poly id="408914853" type="amenity" color="237,199,199" fill="1" layer="-1.00" shape="583.883263,504.544015 588.336669,504.425634 585.717897,491.576812 581.794587,491.578178 583.883263,504.544015"/>
    <poly id="408914853#1" type="building" color="255,230,230" fill="1" layer="-1.00" shape="583.883263,504.544015 588.336669,504.425634 585.717897,491.576812 581.794587,491.578178 583.883263,504.544015"/>
    <poly id="468491470" type="building" color="255,230,230" fill="1" layer="-1.00" shape="724.387091,620.898254 712.547967,621.500062 712.213357,615.000100 724.052491,614.398290 724.387091,620.898254"/>
    <poly id="468491471" type="building" color="255,230,230" fill="1" layer="-1.00" shape="696.555631,665.101125 684.716582,665.702974 684.381612,659.214115 696.220671,658.612265 696.555631,665.101125"/>
    <poly id="468491472" type="building" color="255,230,230" fill="1" layer="-1.00" shape="697.851475,603.778348 686.012671,604.369097 685.677694,597.880239 697.516849,597.278387 697.851475,603.778348"/>
    <poly id="468491473" type="building" color="255,230,230" fill="1" layer="-1.00" shape="877.745109,676.078031 865.906042,676.679594 865.571229,670.190720 877.410306,669.589157 877.745109,676.078031"/>
    <poly id="468491639" type="building" color="255,230,230" fill="1" layer="-1.00" shape="694.163471,679.895790 686.063002,680.701777 687.665076,696.497443 695.765529,695.691458 694.163471,679.895790"/>
    <poly id="468491640" type="building" color="255,230,230" fill="1" layer="-1.00" shape="621.246063,684.549274 613.145269,685.366441 614.747494,701.162085 622.848271,700.344920 621.246063,684.549274"/>
    <poly id="468491641" type="building" color="255,230,230" fill="1" layer="-1.00" shape="756.523823,693.208530 748.423013,694.025551 750.024952,709.821236 758.125745,709.004217 756.523823,693.208530"/>
    <poly id="468491733" type="building" color="255,230,230" fill="1" layer="-1.00" shape="678.011118,589.565217 664.879483,589.671657 665.030078,608.756297 678.161679,608.649859 678.011118,589.565217"/>
    <poly id="468491734" type="building" color="255,230,230" fill="1" layer="-1.00" shape="646.093688,678.458647 658.468146,676.739775 657.834870,658.162541 647.898215,658.756406 646.425566,667.689843 646.093688,678.458647"/>
    <poly id="915049390" type="school" color="237,199,199" fill="1" layer="-2.00" shape="593.865644,409.585011 643.655351,408.174356 641.317776,327.226296 632.010972,327.484026 632.267814,323.558152 565.597375,325.726829 567.463054,390.869563 593.301216,390.143159 593.865644,409.585011"/>
    <poly id="915049391" type="building" color="255,230,230" fill="1" layer="-1.00" shape="597.734176,406.126006 596.949530,389.422130 641.146166,387.361301 641.930715,404.065186 597.734176,406.126006"/>
    <poi id="11564682071" type="amenity" color="237,199,199" layer="4.00" x="599.42" y="473.87"/>
    <poi id="11564682072" type="amenity" color="237,199,199" layer="4.00" x="843.01" y="538.68"/>
    <poi id="11564682073" type="amenity" color="237,199,199" layer="4.00" x="762.47" y="558.09"/>
    <poi id="11564682172" type="amenity" color="237,199,199" layer="4.00" x="573.85" y="662.21"/>
    <poi id="11564682269" type="amenity" color="237,199,199" layer="4.00" x="587.42" y="603.14"/>
    <poi id="11564682270" type="amenity" color="237,199,199" layer="4.00" x="792.16" y="556.89"/>
    <poi id="11564682369" type="amenity" color="237,199,199" layer="4.00" x="579.47" y="475.06"/>
    <poi id="11564682370" type="amenity" color="237,199,199" layer="4.00" x="804.56" y="507.51"/>
    <poi id="11564682469" type="amenity" color="237,199,199" layer="4.00" x="816.03" y="486.52"/>
    <poi id="11747328883" type="historic" color="128,255,128" layer="4.00" x="868.95" y="556.21"/>
    <poi id="4107255446" type="amenity" color="237,199,199" layer="4.00" x="673.88" y="563.03"/>
    <poi id="4107255447" type="tourism" color="207,245,201" layer="3.00" x="701.48" y="575.88"/>
    <poi id="4107258943" type="amenity" color="237,199,199" layer="4.00" x="694.55" y="576.05"/>
    <poi id="4107258944" type="amenity" color="237,199,199" layer="4.00" x="692.04" y="576.63"/>
    <poi id="4108158369" type="amenity" color="237,199,199" layer="4.00" x="855.30" y="550.64"/>
    <poi id="4108158370" type="amenity" color="237,199,199" layer="4.00" x="867.49" y="561.46"/>
    <poi id="4108162592" type="amenity" color="237,199,199" layer="4.00" x="866.82" y="633.41"/>
    <poi id="4108162593" type="amenity" color="237,199,199" layer="4.00" x="870.96" y="560.81"/>
    <poi id="4108174985" type="amenity" color="237,199,199" layer="4.00" x="585.69" y="501.09"/>
    <poi id="4318881277" type="amenity" color="237,199,199" layer="4.00" x="870.16" y="634.09"/>
    <poi id="4679475831" type="amenity" color="237,199,199" layer="4.00" x="868.94" y="541.56"/>
    <poi id="5108727925" type="tourism" color="207,245,201" layer="3.00" x="716.92" y="486.87"/>
    <poi id="5108737723" type="amenity" color="237,199,199" layer="4.00" x="728.99" y="547.11"/>
    <poi id="5134838155" type="amenity" color="237,199,199" layer="4.00" x="424.16" y="553.78"/>
    <poi id="5306953622" type="amenity" color="237,199,199" layer="4.00" x="438.98" y="554.98"/>
    <poi id="5853143185" type="man_made" color="255,230,230" layer="4.00" x="667.22" y="559.95"/>
</additional>
