<?xml version="1.0" encoding="UTF-8"?>

<!-- generated on 2024-05-29 16:02:30 by Eclipse SUMO duarouter Version 1.12.0
<configuration xmlns:xsi="http://www.w3.org/2001/XMLSchema-instance" xsi:noNamespaceSchemaLocation="http://sumo.dlr.de/xsd/duarouterConfiguration.xsd">

    <input>
        <net-file value="map.net.xml"/>
        <route-files value="passenger_trips.xml"/>
    </input>

    <output>
        <output-file value="passenger_routes.rou.xml"/>
        <alternatives-output value="passenger_routes.rou.alt.xml"/>
    </output>

    <time>
        <begin value="0"/>
        <end value="3600"/>
    </time>

    <report>
        <no-warnings value="true"/>
        <ignore-errors value="true"/>
        <no-step-log value="true"/>
    </report>

</configuration>
-->

<routes xmlns:xsi="http://www.w3.org/2001/XMLSchema-instance" xsi:noNamespaceSchemaLocation="http://sumo.dlr.de/xsd/routes_file.xsd">
    <vType id="passenger" vClass="passenger" color="white"/>
    <vehicle id="pass0" type="passenger" depart="0.00">
        <route edges="373750235 -323204750#3 183766545#1 183766545#2 -183766545#2"/>
    </vehicle>
    <vehicle id="pass1" type="passenger" depart="1.00">
        <route edges="-840059240#1 -840059240#0 -840059241 840059241 840059240#0 840059240#1 840059240#2 317468833 840059237#1 317468471 218991136#1 408821095#0 -408821095#0"/>
    </vehicle>
    <vehicle id="pass2" type="passenger" depart="2.00">
        <route edges="373750633#0 -840059244 183766545#0 323204750#3 97552111#0 97552111#1 373750238#5 373750238#0 373750238#1 373750241 373750240"/>
    </vehicle>
    <vehicle id="pass3" type="passenger" depart="3.00">
        <route edges="840059244 -840059244 183766545#0 -323204750#2 -218991073#4"/>
    </vehicle>
    <vehicle id="pass4" type="passenger" depart="4.00">
        <route edges="183766545#0 -323204750#2 -218991073#4 -218991073#3 -218991073#2 -218991073#1 -192225646#0"/>
    </vehicle>
    <vehicle id="pass6" type="passenger" depart="6.00">
        <route edges="-183766545#2 -183766545#1 -323204750#2"/>
    </vehicle>
    <vehicle id="pass7" type="passenger" depart="7.00">
        <route edges="373750237 97552102 373750238#2 373750238#3 373750235 -323204750#3 -323204750#2 373750633#0 373750633#1 -408821095#0 -218991136#1 218991136#1"/>
    </vehicle>
    <vehicle id="pass11" type="passenger" depart="11.00">
        <route edges="-840066117 -97552125#0 97552102 373750238#2 373750238#3 373750235 -323204750#3 -323204750#2 373750633#0 373750633#1 -408821095#0 -218991136#1 -317468471"/>
    </vehicle>
    <vehicle id="pass12" type="passenger" depart="12.00">
        <route edges="97552081#1 -97552081#1 -97552081#0 373750240 373750238#3 373750238#4 373750238#5 373750238#0 373750237 97552125#0 840066117 -840066117"/>
    </vehicle>
    <vehicle id="pass13" type="passenger" depart="13.00">
        <route edges="-218991073#4 218991073#4 323204750#2 323204750#3 97552111#0 97552111#1 373750238#5 373750238#0 373750237 97552125#0 840066117 -218991086#0"/>
    </vehicle>
    <vehicle id="pass15" type="passenger" depart="15.00">
        <route edges="840059237#0 840059237#1 840059237#2 840059238#0 373750633#4"/>
    </vehicle>
    <vehicle id="pass16" type="passenger" depart="16.00">
        <route edges="218991117 218991073#4 323204750#2 323204750#3 97552111#0 97552111#1"/>
    </vehicle>
    <vehicle id="pass17" type="passenger" depart="17.00">
        <route edges="-97552081#0 373750240 373750238#3 373750235 -323204750#3 -323204750#2 373750633#0 373750633#1 373750633#2 373750633#3 -840059238#0 -840059237#2 317468471"/>
    </vehicle>
    <vehicle id="pass20" type="passenger" depart="20.00">
        <route edges="373750238#4 373750238#5 373750238#0 373750238#1 373750238#2 373750238#3 373750235 -323204750#3 -323204750#2 -218991073#4 -218991073#3 -218991015"/>
    </vehicle>
    <vehicle id="pass21" type="passenger" depart="21.00">
        <route edges="-840059237#2 -840059237#1 -317468833 -840059240#2 -840059240#1"/>
    </vehicle>
    <vehicle id="pass22" type="passenger" depart="22.00">
        <route edges="-218991073#3 -218991073#2 -839036438"/>
    </vehicle>
    <vehicle id="pass23" type="passenger" depart="23.00">
        <route edges="-218991086#1 -840066117 -97552125#0 97552102 373750238#2 373750238#3 373750235 -323204750#3 -323204750#2 373750633#0 373750633#1 373750633#2 373750633#3 373750633#4 840059241 840059240#0 840059240#1 -840059240#1 -840059240#0"/>
    </vehicle>
    <vehicle id="pass24" type="passenger" depart="24.00">
        <route edges="323204750#3 97552111#0 97552111#1 373750238#5 373750238#0 373750238#1 373750241 97552081#0 -840115319#1 -840207176#0"/>
    </vehicle>
    <vehicle id="pass25" type="passenger" depart="25.00">
        <route edges="-840207176#1 840115319#1 -97552081#0 373750240 373750238#3 373750235 -323204750#3"/>
    </vehicle>
    <vehicle id="pass27" type="passenger" depart="27.00">
        <route edges="373750237"/>
    </vehicle>
    <vehicle id="pass28" type="passenger" depart="28.00">
        <route edges="-323204750#1 -323204750#0 323204750#0 323204750#1 373750633#0 373750633#1 373750633#2 373750633#3 373750633#4"/>
    </vehicle>
    <vehicle id="pass29" type="passenger" depart="29.00">
        <route edges="-323204750#1 -323204750#0 323204750#0 323204750#1 323204750#2 323204750#3 97552111#0 97552111#1 373750238#5 373750238#0 373750238#1 373750241 97552081#0 -97552081#0"/>
    </vehicle>
    <vehicle id="pass30" type="passenger" depart="30.00">
        <route edges="97552111#1 373750238#5 373750238#0 373750238#1 373750238#2"/>
    </vehicle>
    <vehicle id="pass32" type="passenger" depart="32.00">
        <route edges="840059240#0 840059240#1 840059240#2 317468833 840059237#1 840059237#2"/>
    </vehicle>
    <vehicle id="pass34" type="passenger" depart="34.00">
        <route edges="-840059243 373750633#1 373750633#2 373750633#3 -840059238#0"/>
    </vehicle>
    <vehicle id="pass36" type="passenger" depart="36.00">
        <route edges="840059241 840059240#0 840059240#1 -840059240#1 -840059240#0 -840059241"/>
    </vehicle>
    <vehicle id="pass37" type="passenger" depart="37.00">
        <route edges="373750237 97552102 373750241 97552081#0 97552081#1 -97552081#1"/>
    </vehicle>
    <vehicle id="pass38" type="passenger" depart="38.00">
        <route edges="840115319#1 -97552081#0 373750240 373750238#3 373750235 -323204750#3 -323204750#2 -218991073#4 -218991073#3 -218991073#2 -218991073#1 192225646#1"/>
    </vehicle>
    <vehicle id="pass39" type="passenger" depart="39.00">
        <route edges="-840059240#0 -840059241 840059241 840059240#0 840059240#1 840059240#2 317468833 840059237#1 -840059237#1"/>
    </vehicle>
    <vehicle id="pass40" type="passenger" depart="40.00">
        <route edges="218991136#1 408821095#0 373750633#2 373750633#3 -840059238#0 -840059237#2"/>
    </vehicle>
    <vehicle id="pass42" type="passenger" depart="42.00">
        <route edges="-97552081#2 -97552081#1 -97552081#0 373750240 373750238#3 373750235 -323204750#3 -323204750#2 373750633#0 373750633#1 -408821095#0"/>
    </vehicle>
    <vehicle id="pass43" type="passenger" depart="43.00">
        <route edges="97552125#0 -97552125#0 97552102 373750238#2 373750238#3 373750235 -323204750#3 -323204750#2 373750633#0 373750633#1 373750633#2 373750633#3 373750633#4 840059241 840059240#0 840059240#1 218991107#0"/>
    </vehicle>
    <vehicle id="pass44" type="passenger" depart="44.00">
        <route edges="-218991073#4 -218991073#3 -218991015"/>
    </vehicle>
    <vehicle id="pass46" type="passenger" depart="46.00">
        <route edges="839036438 218991073#2 218991073#3 218991073#4 323204750#2 183766545#1"/>
    </vehicle>
    <vehicle id="pass47" type="passenger" depart="47.00">
        <route edges="-218991073#1 218991073#1 218991073#2 218991073#3 218991073#4 323204750#2 323204750#3 97552111#0 97552111#1 373750238#5 373750238#0 373750238#1 373750241 97552081#0 -97552081#0"/>
    </vehicle>
    <vehicle id="pass48" type="passenger" depart="48.00">
        <route edges="97552125#0 -97552125#0 97552102 373750238#2 373750238#3 373750235 -323204750#3 183766545#1 218991117"/>
    </vehicle>
    <vehicle id="pass49" type="passenger" depart="49.00">
        <route edges="97552102 373750238#2 373750238#3 373750235 -323204750#3 -323204750#2 373750633#0 373750633#1 373750633#2 373750633#3 373750633#4 840059241"/>
    </vehicle>
    <vehicle id="pass50" type="passenger" depart="50.00">
        <route edges="-183766545#1 -323204750#2 373750633#0 373750633#1 373750633#2 373750633#3"/>
    </vehicle>
    <vehicle id="pass51" type="passenger" depart="51.00">
        <route edges="373750238#2 373750238#3 373750235 -323204750#3 183766545#1 218991117"/>
    </vehicle>
    <vehicle id="pass54" type="passenger" depart="54.00">
        <route edges="192225646#0 218991073#1 218991073#2 218991073#3 218991073#4 323204750#2 323204750#3 97552111#0 97552111#1 373750238#5 373750238#0 373750237 97552102"/>
    </vehicle>
    <vehicle id="pass55" type="passenger" depart="55.00">
        <route edges="840059240#3 -840059240#3 317468833 840059237#1 840059237#2 840059238#0 -840059238#0 -840059237#2"/>
    </vehicle>
    <vehicle id="pass56" type="passenger" depart="56.00">
        <route edges="218991073#3 218991073#4 373750633#0 373750633#1 373750633#2 373750633#3 -840059238#0 -840059237#2 -840059237#1 -317468833"/>
    </vehicle>
    <vehicle id="pass57" type="passenger" depart="57.00">
        <route edges="840115319#0 840115319#1 -97552081#0 373750240 373750238#3 373750235 -323204750#3 -323204750#2 373750633#0 840059243"/>
    </vehicle>
    <vehicle id="pass59" type="passenger" depart="59.00">
        <route edges="323204750#0 323204750#1 373750633#0 373750633#1 -408821095#0 -218991136#1 -317468471"/>
    </vehicle>
    <vehicle id="pass60" type="passenger" depart="60.00">
        <route edges="373750633#3 -840059238#0 -840059237#2 317468471 218991136#1"/>
    </vehicle>
    <vehicle id="pass62" type="passenger" depart="62.00">
        <route edges="-183766545#0 840059244 -840059244"/>
    </vehicle>
    <vehicle id="pass63" type="passenger" depart="63.00">
        <route edges="-183766545#2 -183766545#1 323204750#3 97552111#0 97552111#1 373750238#5 373750238#0 373750238#1 373750241 97552081#0"/>
    </vehicle>
    <vehicle id="pass64" type="passenger" depart="64.00">
        <route edges="840059241 840059240#0 840059240#1 840059240#2"/>
    </vehicle>
    <vehicle id="pass67" type="passenger" depart="67.00">
        <route edges="-218991073#3 218991073#3"/>
    </vehicle>
    <vehicle id="pass68" type="passenger" depart="68.00">
        <route edges="-218991073#2 218991073#2 218991073#3 218991073#4 373750633#0 373750633#1 408821095#1"/>
    </vehicle>
    <vehicle id="pass69" type="passenger" depart="69.00">
        <route edges="373750633#3 -840059238#0 -840059237#2 317468471 -218991136#0"/>
    </vehicle>
    <vehicle id="pass70" type="passenger" depart="70.00">
        <route edges="218991073#0 218991073#1 218991073#2 218991073#3 218991073#4 373750633#0 373750633#1 373750633#2 373750633#3 -840059238#0 -840059237#2 317468471"/>
    </vehicle>
    <vehicle id="pass72" type="passenger" depart="72.00">
        <route edges="183766545#0 323204750#3 -323204750#3"/>
    </vehicle>
    <vehicle id="pass73" type="passenger" depart="73.00">
        <route edges="218991117 218991073#4 373750633#0 373750633#1 373750633#2 373750633#3 373750633#4"/>
    </vehicle>
    <vehicle id="pass74" type="passenger" depart="74.00">
        <route edges="-408821095#1 373750633#2 373750633#3 373750633#4 840059241 840059240#0 840059240#1 -840059240#1 -840059240#0 -840059241"/>
    </vehicle>
    <vehicle id="pass75" type="passenger" depart="75.00">
        <route edges="97552125#0 -97552125#0 97552102 373750238#2 373750238#3"/>
    </vehicle>
    <vehicle id="pass76" type="passenger" depart="76.00">
        <route edges="183766545#2 -183766545#2 218991117 218991073#4 373750633#0 373750633#1 373750633#2 373750633#3 373750633#4 840059241 840059240#0 840059240#1 218991107#0"/>
    </vehicle>
    <vehicle id="pass77" type="passenger" depart="77.00">
        <route edges="-218991107#1 -218991107#0 840059240#2 317468833 840059237#1 317468471 218991136#1 408821095#0 -408821095#0"/>
    </vehicle>
    <vehicle id="pass78" type="passenger" depart="78.00">
        <route edges="-840066117 -97552125#0 97552102 373750238#2 373750238#3 373750235 -323204750#3 323204750#3"/>
    </vehicle>
    <vehicle id="pass79" type="passenger" depart="79.00">
        <route edges="-840059238#0 -840059237#2 317468471 218991136#1 408821095#0 -408821095#0"/>
    </vehicle>
    <vehicle id="pass80" type="passenger" depart="80.00">
        <route edges="-218991073#2 218991073#2 218991073#3 218991073#4 323204750#2 323204750#3 97552111#0 97552111#1 373750238#5 373750238#0 373750238#1"/>
    </vehicle>
    <vehicle id="pass84" type="passenger" depart="84.00">
        <route edges="-840059237#1 840059237#1 317468471 218991136#1 408821095#0 -408821095#0 -218991136#1"/>
    </vehicle>
    <vehicle id="pass85" type="passenger" depart="85.00">
        <route edges="840207176#1 -97552125#0 97552102 373750238#2 373750238#3 373750235 -323204750#3 -323204750#2 -323204750#1 -323204750#0 323204750#0 323204750#1"/>
    </vehicle>
    <vehicle id="pass86" type="passenger" depart="86.00">
        <route edges="218991073#0 218991073#1 218991073#2 218991073#3 218991073#4 373750633#0 373750633#1 373750633#2 373750633#3 -840059238#0 -840059237#2 840059237#2 840059238#0"/>
    </vehicle>
    <vehicle id="pass88" type="passenger" depart="88.00">
        <route edges="-218991086#1 -840066117 -97552125#0 97552102 373750238#2 373750238#3 373750235 -323204750#3 183766545#1 183766545#2"/>
    </vehicle>
    <vehicle id="pass89" type="passenger" depart="89.00">
        <route edges="183766545#0 -323204750#2 -218991073#4 -218991073#3 -218991073#2 -218991073#1 218991073#1"/>
    </vehicle>
    <vehicle id="pass90" type="passenger" depart="90.00">
        <route edges="373750241 373750240"/>
    </vehicle>
    <vehicle id="pass91" type="passenger" depart="91.00">
        <route edges="97552111#1 373750238#5 373750238#0 373750237 97552125#0 840066117 -218991086#0"/>
    </vehicle>
    <vehicle id="pass92" type="passenger" depart="92.00">
        <route edges="-97552125#0 97552125#0 840066117 -840066117"/>
    </vehicle>
    <vehicle id="pass93" type="passenger" depart="93.00">
        <route edges="840059240#2 317468833 840059237#1 -840059237#1"/>
    </vehicle>
    <vehicle id="pass94" type="passenger" depart="94.00">
        <route edges="-323204750#3 183766545#1 183766545#2 192225646#0"/>
    </vehicle>
    <vehicle id="pass95" type="passenger" depart="95.00">
        <route edges="183766545#0 -323204750#2 373750633#0 373750633#1 373750633#2 373750633#3 373750633#4 840059241 840059240#0 840059240#1 -840059240#1 -840059240#0"/>
    </vehicle>
    <vehicle id="pass97" type="passenger" depart="97.00">
        <route edges="183766545#2 -183766545#2 218991117 218991073#4 373750633#0 373750633#1 373750633#2 373750633#3 373750633#4 840059241"/>
    </vehicle>
    <vehicle id="pass99" type="passenger" depart="99.00">
        <route edges="97552125#0 -97552125#0 97552102 373750238#2 373750238#3 373750235 -323204750#3 -323204750#2 373750633#0 373750633#1 373750633#2 373750633#3 373750633#4 840059241 840059240#0 840059240#1 840059240#2"/>
    </vehicle>
    <vehicle id="pass100" type="passenger" depart="100.00">
        <route edges="97552102 373750241 97552081#0"/>
    </vehicle>
    <vehicle id="pass101" type="passenger" depart="101.00">
        <route edges="840059240#1 840059240#2 317468833 840059237#1 317468471 218991136#1 408821095#0 373750633#2 -317468483"/>
    </vehicle>
    <vehicle id="pass102" type="passenger" depart="102.00">
        <route edges="218991073#1 218991073#2 218991073#3 218991073#4 323204750#2 323204750#3 -323204750#3"/>
    </vehicle>
    <vehicle id="pass103" type="passenger" depart="103.00">
        <route edges="-97552125#0 97552102 373750238#2 373750238#3 373750235 -323204750#3 -323204750#2 -218991073#4 -218991073#3 -218991073#2 -218991073#1"/>
    </vehicle>
    <vehicle id="pass104" type="passenger" depart="104.00">
        <route edges="-97552081#0 373750240 373750238#3 373750238#4 373750238#5 373750238#0 373750237 97552125#0"/>
    </vehicle>
    <vehicle id="pass105" type="passenger" depart="105.00">
        <route edges="-840059240#0 -840059241 840059241 840059240#0 840059240#1 840059240#2 317468833 840059237#1 840059237#2 840059238#0"/>
    </vehicle>
    <vehicle id="pass106" type="passenger" depart="106.00">
        <route edges="192225646#0 -192225646#0 -183766545#2 -183766545#1 183766545#1"/>
    </vehicle>
    <vehicle id="pass107" type="passenger" depart="107.00">
        <route edges="97552081#1 -97552081#1 -97552081#0 373750240 373750238#3 373750238#4 373750238#5 373750238#0 373750237 97552125#0 97552125#1"/>
    </vehicle>
    <vehicle id="pass108" type="passenger" depart="108.00">
        <route edges="218991136#1 408821095#0 373750633#2 373750633#3"/>
    </vehicle>
    <vehicle id="pass109" type="passenger" depart="109.00">
        <route edges="-317468833 -840059240#2"/>
    </vehicle>
    <vehicle id="pass110" type="passenger" depart="110.00">
        <route edges="97552102 373750238#2 373750238#3 373750235 -323204750#3 -323204750#2 323204750#2"/>
    </vehicle>
    <vehicle id="pass111" type="passenger" depart="111.00">
        <route edges="218991117 218991073#4 373750633#0 373750633#1 -408821095#0 -218991136#1 218991136#1 408821095#0"/>
    </vehicle>
    <vehicle id="pass112" type="passenger" depart="112.00">
        <route edges="-218991073#1 218991073#1 218991073#2 218991073#3 218991073#4 323204750#2"/>
    </vehicle>
    <vehicle id="pass113" type="passenger" depart="113.00">
        <route edges="218991073#3 218991073#4 373750633#0 373750633#1 373750633#2 373750633#3 373750633#4 840059241 840059240#0 840059240#1 840059240#2 840059240#3 840059240#4"/>
    </vehicle>
    <vehicle id="pass115" type="passenger" depart="115.00">
        <route edges="-218991073#3 218991073#3 218991073#4 -323204750#1 -323204750#0"/>
    </vehicle>
    <vehicle id="pass118" type="passenger" depart="118.00">
        <route edges="840059244 373750633#1 373750633#2 373750633#3 -840059238#0 -840059237#2 -840059237#1"/>
    </vehicle>
    <vehicle id="pass120" type="passenger" depart="120.00">
        <route edges="183766545#0 -323204750#2 323204750#2"/>
    </vehicle>
    <vehicle id="pass121" type="passenger" depart="121.00">
        <route edges="218991086#0 -840066117 -97552125#0 97552102 373750241 97552081#0 97552081#1"/>
    </vehicle>
    <vehicle id="pass122" type="passenger" depart="122.00">
        <route edges="-408821095#1 373750633#2"/>
    </vehicle>
    <vehicle id="pass124" type="passenger" depart="124.00">
        <route edges="373750238#1 373750238#2 373750238#3 373750235 -323204750#3 -323204750#2 373750633#0 373750633#1 373750633#2 373750633#3 -840059238#0 -840059237#2 -840059237#1 -317468833 -840059240#2"/>
    </vehicle>
    <vehicle id="pass125" type="passenger" depart="125.00">
        <route edges="-840059243 373750633#1 -408821095#0 -218991136#1 218991136#1 408821095#0"/>
    </vehicle>
    <vehicle id="pass126" type="passenger" depart="126.00">
        <route edges="-218991073#2 -218991073#1 192225646#1"/>
    </vehicle>
    <vehicle id="pass127" type="passenger" depart="127.00">
        <route edges="97552125#0 97552125#1"/>
    </vehicle>
    <vehicle id="pass128" type="passenger" depart="128.00">
        <route edges="-218991073#2 218991073#2 218991073#3 218991073#4 323204750#2 323204750#3 -323204750#3"/>
    </vehicle>
    <vehicle id="pass131" type="passenger" depart="131.00">
        <route edges="-840207176#1 840115319#1 -97552081#0 373750240 373750238#3 373750235 -323204750#3 -323204750#2 373750633#0 373750633#1 -408821095#0 -218991136#1 -317468471"/>
    </vehicle>
    <vehicle id="pass133" type="passenger" depart="133.00">
        <route edges="323204750#1 323204750#2 323204750#3 97552111#0 97552111#1 373750238#5 373750238#0 373750237 97552125#0"/>
    </vehicle>
    <vehicle id="pass134" type="passenger" depart="134.00">
        <route edges="373750237 97552102 373750238#2 373750238#3 373750235 -323204750#3 -183766545#0"/>
    </vehicle>
    <vehicle id="pass135" type="passenger" depart="135.00">
        <route edges="840059237#1 -840059237#1 -317468833 -840059240#2"/>
    </vehicle>
    <vehicle id="pass136" type="passenger" depart="136.00">
        <route edges="373750238#0 373750238#1 373750241 97552081#0 97552081#1"/>
    </vehicle>
    <vehicle id="pass138" type="passenger" depart="138.00">
        <route edges="-218991107#0 840059240#2 317468833 840059237#1 317468471"/>
    </vehicle>
    <vehicle id="pass140" type="passenger" depart="140.00">
        <route edges="373750240 373750238#3 373750235 -323204750#3 -323204750#2"/>
    </vehicle>
    <vehicle id="pass141" type="passenger" depart="141.00">
        <route edges="323204750#3 -323204750#3 -323204750#2 373750633#0 373750633#1 373750633#2 373750633#3 -840059238#0 -840059237#2"/>
    </vehicle>
    <vehicle id="pass142" type="passenger" depart="142.00">
        <route edges="218991073#2 218991073#3 218991073#4 323204750#2 323204750#3 97552111#0 97552111#1 373750238#5 373750238#0 373750238#1 373750241 97552081#0 -840115319#1 840115319#1"/>
    </vehicle>
    <vehicle id="pass144" type="passenger" depart="144.00">
        <route edges="183766545#0 -323204750#2 373750633#0 373750633#1 373750633#2 373750633#3 373750633#4 840059241 840059240#0 840059240#1 -840059240#1 -840059240#0"/>
    </vehicle>
    <vehicle id="pass145" type="passenger" depart="145.00">
        <route edges="-183766545#0 840059244 373750633#1 373750633#2 373750633#3 -840059238#0 -840059237#2 -840059237#1 840059237#1"/>
    </vehicle>
    <vehicle id="pass146" type="passenger" depart="146.00">
        <route edges="323204750#3 -323204750#3 -323204750#2 373750633#0 373750633#1 373750633#2 373750633#3 -840059238#0 -840059237#2"/>
    </vehicle>
    <vehicle id="pass147" type="passenger" depart="147.00">
        <route edges="373750633#0 373750633#1 373750633#2 373750633#3 -840059238#0 -840059237#2 317468471"/>
    </vehicle>
    <vehicle id="pass148" type="passenger" depart="148.00">
        <route edges="183766545#0 183766545#1 -183766545#1"/>
    </vehicle>
    <vehicle id="pass149" type="passenger" depart="149.00">
        <route edges="-218991073#2 218991073#2 218991073#3 218991073#4 323204750#2 -183766545#0 840059244"/>
    </vehicle>
    <vehicle id="pass150" type="passenger" depart="150.00">
        <route edges="840066117 -840066117 -97552125#0 97552102 373750238#2 373750238#3 373750235 -323204750#3 -323204750#2 373750633#0 373750633#1 -408821095#0 -218991136#1 218991136#1"/>
    </vehicle>
    <vehicle id="pass152" type="passenger" depart="152.00">
        <route edges="-317468471 317468471 -218991136#0"/>
    </vehicle>
    <vehicle id="pass154" type="passenger" depart="154.00">
        <route edges="839036438 218991073#2 218991073#3 218991073#4 373750633#0 373750633#1 373750633#2 373750633#3 373750633#4 840059241"/>
    </vehicle>
    <vehicle id="pass155" type="passenger" depart="155.00">
        <route edges="840066117 -840066117 -97552125#0 97552102 373750238#2 373750238#3 373750235 -323204750#3"/>
    </vehicle>
    <vehicle id="pass158" type="passenger" depart="158.00">
        <route edges="-97552125#0 97552102 373750238#2 373750238#3 373750238#4 373750238#5 373750238#0"/>
    </vehicle>
    <vehicle id="pass162" type="passenger" depart="162.00">
        <route edges="-183766545#2 218991117 218991073#4 373750633#0 373750633#1 373750633#2 373750633#3 373750633#4 373750633#5"/>
    </vehicle>
    <vehicle id="pass163" type="passenger" depart="163.00">
        <route edges="-840059244 183766545#0 323204750#3 97552111#0 97552111#1 373750238#5 373750238#0 373750238#1 373750241 97552081#0"/>
    </vehicle>
    <vehicle id="pass164" type="passenger" depart="164.00">
        <route edges="840059237#0 840059237#1 840059237#2 840059238#0 373750633#4 840059241"/>
    </vehicle>
    <vehicle id="pass165" type="passenger" depart="165.00">
        <route edges="840059237#1 840059237#2 840059238#0 -840059238#0"/>
    </vehicle>
    <vehicle id="pass166" type="passenger" depart="166.00">
        <route edges="408821095#0 373750633#2 373750633#3 373750633#4 840059241 840059240#0 840059240#1 218991107#0 218991107#1 -218991107#1 -218991107#0"/>
    </vehicle>
    <vehicle id="pass167" type="passenger" depart="167.00">
        <route edges="840059240#3 -840059240#3 -840059240#2 -840059240#1 -840059240#0 -840059241 840059241"/>
    </vehicle>
    <vehicle id="pass168" type="passenger" depart="168.00">
        <route edges="-840059237#2 840059237#2 840059238#0 373750633#4 840059241 840059240#0"/>
    </vehicle>
    <vehicle id="pass169" type="passenger" depart="169.00">
        <route edges="218991015 218991073#3 218991073#4 373750633#0 373750633#1 373750633#2 373750633#3 373750633#4 840059241 840059240#0 840059240#1 840059240#2 840059240#3 -840059240#3"/>
    </vehicle>
    <vehicle id="pass170" type="passenger" depart="170.00">
        <route edges="839036438 -839036438"/>
    </vehicle>
    <vehicle id="pass171" type="passenger" depart="171.00">
        <route edges="-183766545#2 -183766545#1 -323204750#2 -323204750#1"/>
    </vehicle>
    <vehicle id="pass172" type="passenger" depart="172.00">
        <route edges="-840059244 183766545#0 -323204750#2 373750633#0 373750633#1 373750633#2 373750633#3 373750633#4 840059241"/>
    </vehicle>
    <vehicle id="pass173" type="passenger" depart="173.00">
        <route edges="97552102 373750238#2 373750238#3 373750235 -323204750#3 -323204750#2 373750633#0 373750633#1 373750633#2 373750633#3 373750633#4 840059241 840059240#0 840059240#1 -840059240#1 -840059240#0"/>
    </vehicle>
    <vehicle id="pass174" type="passenger" depart="174.00">
        <route edges="373750235 97552111#0 97552111#1 373750238#5 373750238#0 373750237 97552125#0 -97552125#0"/>
    </vehicle>
    <vehicle id="pass175" type="passenger" depart="175.00">
        <route edges="97552111#1 373750238#5 373750238#0 373750238#1 373750238#2 373750238#3 373750235 -323204750#3 183766545#1 218991117"/>
    </vehicle>
    <vehicle id="pass176" type="passenger" depart="176.00">
        <route edges="840207176#1 -97552125#0 97552102 373750238#2 373750238#3 373750235 -323204750#3 -323204750#2 -218991073#4 -218991117"/>
    </vehicle>
    <vehicle id="pass177" type="passenger" depart="177.00">
        <route edges="97552102 373750238#2 373750238#3 373750235 -323204750#3 -323204750#2 373750633#0 373750633#1 373750633#2 373750633#3 -840059238#0 -840059237#2 -840059237#1 -317468833"/>
    </vehicle>
    <vehicle id="pass178" type="passenger" depart="178.00">
        <route edges="97552102 373750238#2 373750238#3 373750235 -323204750#3 -323204750#2 373750633#0 373750633#1 373750633#2 373750633#3 -840059238#0"/>
    </vehicle>
    <vehicle id="pass180" type="passenger" depart="180.00">
        <route edges="373750241 373750240 373750238#3 373750235 -323204750#3 -323204750#2 373750633#0 373750633#1 373750633#2 373750633#3 373750633#4 840059241 840059240#0 840059240#1 -840059240#1 -840059240#0 -840059241"/>
    </vehicle>
    <vehicle id="pass181" type="passenger" depart="181.00">
        <route edges="323204750#0 323204750#1 373750633#0 373750633#1 373750633#2 373750633#3 373750633#4 840059241 840059240#0 840059240#1 218991107#0"/>
    </vehicle>
    <vehicle id="pass182" type="passenger" depart="182.00">
        <route edges="-97552081#1 -97552081#0 373750240 373750238#3 373750235 -323204750#3 -323204750#2 323204750#2"/>
    </vehicle>
    <vehicle id="pass183" type="passenger" depart="183.00">
        <route edges="-840059239 -840059240#3 317468833 840059237#1 317468471 218991136#1 408821095#0 373750633#2"/>
    </vehicle>
    <vehicle id="pass184" type="passenger" depart="184.00">
        <route edges="-183766545#0 840059244 -840059244 183766545#0 323204750#3 97552111#0 97552111#1 373750238#5 373750238#0 373750238#1 373750241 97552081#0"/>
    </vehicle>
    <vehicle id="pass185" type="passenger" depart="185.00">
        <route edges="218991117 218991073#4 373750633#0 373750633#1 373750633#2 373750633#3"/>
    </vehicle>
    <vehicle id="pass186" type="passenger" depart="186.00">
        <route edges="373750633#0 -840059244 183766545#0 323204750#3 97552111#0 97552111#1 373750238#5 373750238#0 373750238#1 373750241 373750240"/>
    </vehicle>
    <vehicle id="pass187" type="passenger" depart="187.00">
        <route edges="-840207176#1 840115319#1 -97552081#0 373750240 373750238#3 373750235 -323204750#3 -323204750#2 -218991073#4 -218991073#3 -218991073#2"/>
    </vehicle>
    <vehicle id="pass188" type="passenger" depart="188.00">
        <route edges="373750238#0 373750237 97552125#0 840066117 -840066117"/>
    </vehicle>
    <vehicle id="pass189" type="passenger" depart="189.00">
        <route edges="-840059241 840059241 840059240#0 840059240#1 840059240#2 840059240#3"/>
    </vehicle>
    <vehicle id="pass190" type="passenger" depart="190.00">
        <route edges="373750240 373750238#3 373750235 -323204750#3 -323204750#2 373750633#0 373750633#1 373750633#2 373750633#3 -840059238#0 -840059237#2 -840059237#1 -317468833 -840059240#2"/>
    </vehicle>
    <vehicle id="pass192" type="passenger" depart="192.00">
        <route edges="-97552125#0 97552102 373750238#2 373750238#3 373750235 -323204750#3 -323204750#2 373750633#0 373750633#1 373750633#2 373750633#3 -840059238#0 -840059237#2 -840059237#1 -317468833 -840059240#2"/>
    </vehicle>
    <vehicle id="pass193" type="passenger" depart="193.00">
        <route edges="-218991117 -183766545#1 183766545#1"/>
    </vehicle>