<?xml version="1.0" encoding="UTF-8"?>

<!-- generated on 2024-05-29 16:02:27 by Eclipse SUMO duarouter Version 1.12.0
<configuration xmlns:xsi="http://www.w3.org/2001/XMLSchema-instance" xsi:noNamespaceSchemaLocation="http://sumo.dlr.de/xsd/duarouterConfiguration.xsd">

    <input>
        <net-file value="map.net.xml"/>
        <route-files value="truck_trips.xml"/>
    </input>

    <output>
        <output-file value="truck_routes.rou.xml"/>
        <alternatives-output value="truck_routes.rou.alt.xml"/>
    </output>

    <time>
        <begin value="0"/>
        <end value="3600"/>
    </time>

    <report>
        <no-warnings value="true"/>
        <ignore-errors value="true"/>
        <no-step-log value="true"/>
    </report>

</configuration>
-->

<routes xmlns:xsi="http://www.w3.org/2001/XMLSchema-instance" xsi:noNamespaceSchemaLocation="http://sumo.dlr.de/xsd/routes_file.xsd">
    <vType id="truck" vClass="truck" color="179,223,183"/>
    <vehicle id="truck0" type="truck" depart="0.00">
        <route edges="373750235 -323204750#3 183766545#1 183766545#2 -183766545#2"/>
    </vehicle>
    <vehicle id="truck1" type="truck" depart="15.00">
        <route edges="-840059240#1 -840059240#0 -840059241 840059241 840059240#0 840059240#1 840059240#2 317468833 840059237#1 317468471 218991136#1 408821095#0 -408821095#0"/>
    </vehicle>
    <vehicle id="truck2" type="truck" depart="30.00">
        <route edges="373750633#0 -840059244 183766545#0 323204750#3 97552111#0 97552111#1 373750238#5 373750238#0 373750238#1 373750241 373750240"/>
    </vehicle>
    <vehicle id="truck3" type="truck" depart="45.00">
        <route edges="840059244 -840059244 183766545#0 -323204750#2 -218991073#4"/>
    </vehicle>
    <vehicle id="truck4" type="truck" depart="60.00">
        <route edges="183766545#0 -323204750#2 -218991073#4 -218991073#3 -218991073#2 -218991073#1 -192225646#0"/>
    </vehicle>
    <vehicle id="truck6" type="truck" depart="90.00">
        <route edges="-183766545#2 -183766545#1 -323204750#2"/>
    </vehicle>
    <vehicle id="truck7" type="truck" depart="105.00">
        <route edges="373750237 97552102 373750238#2 373750238#3 373750235 -323204750#3 -323204750#2 373750633#0 373750633#1 -408821095#0 -218991136#1 218991136#1"/>
    </vehicle>
    <vehicle id="truck11" type="truck" depart="165.00">
        <route edges="-840066117 -97552125#0 97552102 373750238#2 373750238#3 373750235 -323204750#3 -323204750#2 373750633#0 373750633#1 -408821095#0 -218991136#1 -317468471"/>
    </vehicle>
    <vehicle id="truck12" type="truck" depart="180.00">
        <route edges="97552081#1 -97552081#1 -97552081#0 373750240 373750238#3 373750238#4 373750238#5 373750238#0 373750237 97552125#0 840066117 -840066117"/>
    </vehicle>
    <vehicle id="truck13" type="truck" depart="195.00">
        <route edges="-218991073#4 218991073#4 323204750#2 323204750#3 97552111#0 97552111#1 373750238#5 373750238#0 373750237 97552125#0 840066117 -218991086#0"/>
    </vehicle>
    <vehicle id="truck15" type="truck" depart="225.00">
        <route edges="840059237#0 840059237#1 840059237#2 840059238#0 373750633#4"/>
    </vehicle>
    <vehicle id="truck16" type="truck" depart="240.00">
        <route edges="218991117 218991073#4 323204750#2 323204750#3 97552111#0 97552111#1"/>
    </vehicle>
    <vehicle id="truck17" type="truck" depart="255.00">
        <route edges="-97552081#0 373750240 373750238#3 373750235 -323204750#3 -323204750#2 373750633#0 373750633#1 373750633#2 373750633#3 -840059238#0 -840059237#2 317468471"/>
    </vehicle>
    <vehicle id="truck20" type="truck" depart="300.00">
        <route edges="373750238#4 373750238#5 373750238#0 373750238#1 373750238#2 373750238#3 373750235 -323204750#3 -323204750#2 -218991073#4 -218991073#3 -218991015"/>
    </vehicle>
    <vehicle id="truck21" type="truck" depart="315.00">
        <route edges="-840059237#2 -840059237#1 -317468833 -840059240#2 -840059240#1"/>
    </vehicle>
    <vehicle id="truck22" type="truck" depart="330.00">
        <route edges="-218991073#3 -218991073#2 -839036438"/>
    </vehicle>
    <vehicle id="truck23" type="truck" depart="345.00">
        <route edges="-218991086#1 -840066117 -97552125#0 97552102 373750238#2 373750238#3 373750235 -323204750#3 -323204750#2 373750633#0 373750633#1 373750633#2 373750633#3 373750633#4 840059241 840059240#0 840059240#1 -840059240#1 -840059240#0"/>
    </vehicle>
    <vehicle id="truck24" type="truck" depart="360.00">
        <route edges="323204750#3 97552111#0 97552111#1 373750238#5 373750238#0 373750238#1 373750241 97552081#0 -840115319#1 -840207176#0"/>
    </vehicle>
    <vehicle id="truck25" type="truck" depart="375.00">
        <route edges="-840207176#1 840115319#1 -97552081#0 373750240 373750238#3 373750235 -323204750#3"/>
    </vehicle>
    <vehicle id="truck27" type="truck" depart="405.00">
        <route edges="373750237"/>
    </vehicle>
    <vehicle id="truck28" type="truck" depart="420.00">
        <route edges="-323204750#1 -323204750#0 323204750#0 323204750#1 373750633#0 373750633#1 373750633#2 373750633#3 373750633#4"/>
    </vehicle>
    <vehicle id="truck29" type="truck" depart="435.00">
        <route edges="-323204750#1 -323204750#0 323204750#0 323204750#1 323204750#2 323204750#3 97552111#0 97552111#1 373750238#5 373750238#0 373750238#1 373750241 97552081#0 -97552081#0"/>
    </vehicle>
    <vehicle id="truck30" type="truck" depart="450.00">
        <route edges="97552111#1 373750238#5 373750238#0 373750238#1 373750238#2"/>
    </vehicle>
    <vehicle id="truck32" type="truck" depart="480.00">
        <route edges="840059240#0 840059240#1 840059240#2 317468833 840059237#1 840059237#2"/>
    </vehicle>
    <vehicle id="truck34" type="truck" depart="510.00">
        <route edges="-840059243 373750633#1 373750633#2 373750633#3 -840059238#0"/>
    </vehicle>
    <vehicle id="truck36" type="truck" depart="540.00">
        <route edges="840059241 840059240#0 840059240#1 -840059240#1 -840059240#0 -840059241"/>
    </vehicle>
    <vehicle id="truck37" type="truck" depart="555.00">
        <route edges="373750237 97552102 373750241 97552081#0 97552081#1 -97552081#1"/>
    </vehicle>
    <vehicle id="truck38" type="truck" depart="570.00">
        <route edges="840115319#1 -97552081#0 373750240 373750238#3 373750235 -323204750#3 -323204750#2 -218991073#4 -218991073#3 -218991073#2 -218991073#1 192225646#1"/>
    </vehicle>
    <vehicle id="truck39" type="truck" depart="585.00">
        <route edges="-840059240#0 -840059241 840059241 840059240#0 840059240#1 840059240#2 317468833 840059237#1 -840059237#1"/>
    </vehicle>
    <vehicle id="truck40" type="truck" depart="600.00">
        <route edges="218991136#1 408821095#0 373750633#2 373750633#3 -840059238#0 -840059237#2"/>
    </vehicle>
    <vehicle id="truck42" type="truck" depart="630.00">
        <route edges="-97552081#2 -97552081#1 -97552081#0 373750240 373750238#3 373750235 -323204750#3 -323204750#2 373750633#0 373750633#1 -408821095#0"/>
    </vehicle>
    <vehicle id="truck43" type="truck" depart="645.00">
        <route edges="97552125#0 -97552125#0 97552102 373750238#2 373750238#3 373750235 -323204750#3 -323204750#2 373750633#0 373750633#1 373750633#2 373750633#3 373750633#4 840059241 840059240#0 840059240#1 218991107#0"/>
    </vehicle>
    <vehicle id="truck44" type="truck" depart="660.00">
        <route edges="-218991073#4 -218991073#3 -218991015"/>
    </vehicle>
    <vehicle id="truck46" type="truck" depart="690.00">
        <route edges="839036438 218991073#2 218991073#3 218991073#4 323204750#2 183766545#1"/>
    </vehicle>
    <vehicle id="truck47" type="truck" depart="705.00">
        <route edges="-218991073#1 218991073#1 218991073#2 218991073#3 218991073#4 323204750#2 323204750#3 97552111#0 97552111#1 373750238#5 373750238#0 373750238#1 373750241 97552081#0 -97552081#0"/>
    </vehicle>
    <vehicle id="truck48" type="truck" depart="720.00">
        <route edges="97552125#0 -97552125#0 97552102 373750238#2 373750238#3 373750235 -323204750#3 183766545#1 218991117"/>
    </vehicle>
    <vehicle id="truck49" type="truck" depart="735.00">
        <route edges="97552102 373750238#2 373750238#3 373750235 -323204750#3 -323204750#2 373750633#0 373750633#1 373750633#2 373750633#3 373750633#4 840059241"/>
    </vehicle>
    <vehicle id="truck50" type="truck" depart="750.00">
        <route edges="-183766545#1 -323204750#2 373750633#0 373750633#1 373750633#2 373750633#3"/>
    </vehicle>
    <vehicle id="truck51" type="truck" depart="765.00">
        <route edges="373750238#2 373750238#3 373750235 -323204750#3 183766545#1 218991117"/>
    </vehicle>
    <vehicle id="truck54" type="truck" depart="810.00">
        <route edges="192225646#0 218991073#1 218991073#2 218991073#3 218991073#4 323204750#2 323204750#3 97552111#0 97552111#1 373750238#5 373750238#0 373750237 97552102"/>
    </vehicle>
    <vehicle id="truck55" type="truck" depart="825.00">
        <route edges="840059240#3 -840059240#3 317468833 840059237#1 840059237#2 840059238#0 -840059238#0 -840059237#2"/>
    </vehicle>
    <vehicle id="truck56" type="truck" depart="840.00">
        <route edges="218991073#3 218991073#4 373750633#0 373750633#1 373750633#2 373750633#3 -840059238#0 -840059237#2 -840059237#1 -317468833"/>
    </vehicle>
    <vehicle id="truck57" type="truck" depart="855.00">
        <route edges="840115319#0 840115319#1 -97552081#0 373750240 373750238#3 373750235 -323204750#3 -323204750#2 373750633#0 840059243"/>
    </vehicle>
    <vehicle id="truck59" type="truck" depart="885.00">
        <route edges="323204750#0 323204750#1 373750633#0 373750633#1 -408821095#0 -218991136#1 -317468471"/>
    </vehicle>
    <vehicle id="truck60" type="truck" depart="900.00">
        <route edges="373750633#3 -840059238#0 -840059237#2 317468471 218991136#1"/>
    </vehicle>
    <vehicle id="truck62" type="truck" depart="930.00">
        <route edges="-183766545#0 840059244 -840059244"/>
    </vehicle>
    <vehicle id="truck63" type="truck" depart="945.00">
        <route edges="-183766545#2 -183766545#1 323204750#3 97552111#0 97552111#1 373750238#5 373750238#0 373750238#1 373750241 97552081#0"/>
    </vehicle>
    <vehicle id="truck64" type="truck" depart="960.00">
        <route edges="840059241 840059240#0 840059240#1 840059240#2"/>
    </vehicle>
    <vehicle id="truck67" type="truck" depart="1005.00">
        <route edges="-218991073#3 218991073#3"/>
    </vehicle>
    <vehicle id="truck68" type="truck" depart="1020.00">
        <route edges="-218991073#2 218991073#2 218991073#3 218991073#4 373750633#0 373750633#1 408821095#1"/>
    </vehicle>
    <vehicle id="truck69" type="truck" depart="1035.00">
        <route edges="373750633#3 -840059238#0 -840059237#2 317468471 -218991136#0"/>
    </vehicle>
    <vehicle id="truck70" type="truck" depart="1050.00">
        <route edges="218991073#0 218991073#1 218991073#2 218991073#3 218991073#4 373750633#0 373750633#1 373750633#2 373750633#3 -840059238#0 -840059237#2 317468471"/>
    </vehicle>
    <vehicle id="truck72" type="truck" depart="1080.00">
        <route edges="183766545#0 323204750#3 -323204750#3"/>
    </vehicle>
    <vehicle id="truck73" type="truck" depart="1095.00">
        <route edges="218991117 218991073#4 373750633#0 373750633#1 373750633#2 373750633#3 373750633#4"/>
    </vehicle>
    <vehicle id="truck74" type="truck" depart="1110.00">
        <route edges="-408821095#1 373750633#2 373750633#3 373750633#4 840059241 840059240#0 840059240#1 -840059240#1 -840059240#0 -840059241"/>
    </vehicle>
    <vehicle id="truck75" type="truck" depart="1125.00">
        <route edges="97552125#0 -97552125#0 97552102 373750238#2 373750238#3"/>
    </vehicle>
    <vehicle id="truck76" type="truck" depart="1140.00">
        <route edges="183766545#2 -183766545#2 218991117 218991073#4 373750633#0 373750633#1 373750633#2 373750633#3 373750633#4 840059241 840059240#0 840059240#1 218991107#0"/>
    </vehicle>
    <vehicle id="truck77" type="truck" depart="1155.00">
        <route edges="-218991107#1 -218991107#0 840059240#2 317468833 840059237#1 317468471 218991136#1 408821095#0 -408821095#0"/>
    </vehicle>
    <vehicle id="truck78" type="truck" depart="1170.00">
        <route edges="-840066117 -97552125#0 97552102 373750238#2 373750238#3 373750235 -323204750#3 323204750#3"/>
    </vehicle>
    <vehicle id="truck79" type="truck" depart="1185.00">
        <route edges="-840059238#0 -840059237#2 317468471 218991136#1 408821095#0 -408821095#0"/>
    </vehicle>
    <vehicle id="truck80" type="truck" depart="1200.00">
        <route edges="-218991073#2 218991073#2 218991073#3 218991073#4 323204750#2 323204750#3 97552111#0 97552111#1 373750238#5 373750238#0 373750238#1"/>
    </vehicle>
    <vehicle id="truck84" type="truck" depart="1260.00">
        <route edges="-840059237#1 840059237#1 317468471 218991136#1 408821095#0 -408821095#0 -218991136#1"/>
    </vehicle>
    <vehicle id="truck85" type="truck" depart="1275.00">
        <route edges="840207176#1 -97552125#0 97552102 373750238#2 373750238#3 373750235 -323204750#3 -323204750#2 -323204750#1 -323204750#0 323204750#0 323204750#1"/>
    </vehicle>
    <vehicle id="truck86" type="truck" depart="1290.00">
        <route edges="218991073#0 218991073#1 218991073#2 218991073#3 218991073#4 373750633#0 373750633#1 373750633#2 373750633#3 -840059238#0 -840059237#2 840059237#2 840059238#0"/>
    </vehicle>
    <vehicle id="truck88" type="truck" depart="1320.00">
        <route edges="-218991086#1 -840066117 -97552125#0 97552102 373750238#2 373750238#3 373750235 -323204750#3 183766545#1 183766545#2"/>
    </vehicle>
    <vehicle id="truck89" type="truck" depart="1335.00">
        <route edges="183766545#0 -323204750#2 -218991073#4 -218991073#3 -218991073#2 -218991073#1 218991073#1"/>
    </vehicle>
    <vehicle id="truck90" type="truck" depart="1350.00">
        <route edges="373750241 373750240"/>
    </vehicle>
    <vehicle id="truck91" type="truck" depart="1365.00">
        <route edges="97552111#1 373750238#5 373750238#0 373750237 97552125#0 840066117 -218991086#0"/>
    </vehicle>
    <vehicle id="truck92" type="truck" depart="1380.00">
        <route edges="-97552125#0 97552125#0 840066117 -840066117"/>
    </vehicle>
    <vehicle id="truck93" type="truck" depart="1395.00">
        <route edges="840059240#2 317468833 840059237#1 -840059237#1"/>
    </vehicle>
    <vehicle id="truck94" type="truck" depart="1410.00">
        <route edges="-323204750#3 183766545#1 183766545#2 192225646#0"/>
    </vehicle>
    <vehicle id="truck95" type="truck" depart="1425.00">
        <route edges="183766545#0 -323204750#2 373750633#0 373750633#1 373750633#2 373750633#3 373750633#4 840059241 840059240#0 840059240#1 -840059240#1 -840059240#0"/>
    </vehicle>
    <vehicle id="truck97" type="truck" depart="1455.00">
        <route edges="183766545#2 -183766545#2 218991117 218991073#4 373750633#0 373750633#1 373750633#2 373750633#3 373750633#4 840059241"/>
    </vehicle>
    <vehicle id="truck99" type="truck" depart="1485.00">
        <route edges="97552125#0 -97552125#0 97552102 373750238#2 373750238#3 373750235 -323204750#3 -323204750#2 373750633#0 373750633#1 373750633#2 373750633#3 373750633#4 840059241 840059240#0 840059240#1 840059240#2"/>
    </vehicle>
    <vehicle id="truck100" type="truck" depart="1500.00">
        <route edges="97552102 373750241 97552081#0"/>
    </vehicle>
    <vehicle id="truck101" type="truck" depart="1515.00">
        <route edges="840059240#1 840059240#2 317468833 840059237#1 317468471 218991136#1 408821095#0 373750633#2 -317468483"/>
    </vehicle>
    <vehicle id="truck102" type="truck" depart="1530.00">
        <route edges="218991073#1 218991073#2 218991073#3 218991073#4 323204750#2 323204750#3 -323204750#3"/>
    </vehicle>
    <vehicle id="truck103" type="truck" depart="1545.00">
        <route edges="-97552125#0 97552102 373750238#2 373750238#3 373750235 -323204750#3 -323204750#2 -218991073#4 -218991073#3 -218991073#2 -218991073#1"/>
    </vehicle>
    <vehicle id="truck104" type="truck" depart="1560.00">
        <route edges="-97552081#0 373750240 373750238#3 373750238#4 373750238#5 373750238#0 373750237 97552125#0"/>
    </vehicle>
    <vehicle id="truck105" type="truck" depart="1575.00">
        <route edges="-840059240#0 -840059241 840059241 840059240#0 840059240#1 840059240#2 317468833 840059237#1 840059237#2 840059238#0"/>
    </vehicle>
    <vehicle id="truck106" type="truck" depart="1590.00">
        <route edges="192225646#0 -192225646#0 -183766545#2 -183766545#1 183766545#1"/>
    </vehicle>
    <vehicle id="truck107" type="truck" depart="1605.00">
        <route edges="97552081#1 -97552081#1 -97552081#0 373750240 373750238#3 373750238#4 373750238#5 373750238#0 373750237 97552125#0 97552125#1"/>
    </vehicle>
    <vehicle id="truck108" type="truck" depart="1620.00">
        <route edges="218991136#1 408821095#0 373750633#2 373750633#3"/>
    </vehicle>
    <vehicle id="truck109" type="truck" depart="1635.00">
        <route edges="-317468833 -840059240#2"/>
    </vehicle>
    <vehicle id="truck110" type="truck" depart="1650.00">
        <route edges="97552102 373750238#2 373750238#3 373750235 -323204750#3 -323204750#2 323204750#2"/>
    </vehicle>
    <vehicle id="truck111" type="truck" depart="1665.00">
        <route edges="218991117 218991073#4 373750633#0 373750633#1 -408821095#0 -218991136#1 218991136#1 408821095#0"/>
    </vehicle>
    <vehicle id="truck112" type="truck" depart="1680.00">
        <route edges="-218991073#1 218991073#1 218991073#2 218991073#3 218991073#4 323204750#2"/>
    </vehicle>
    <vehicle id="truck113" type="truck" depart="1695.00">
        <route edges="218991073#3 218991073#4 373750633#0 373750633#1 373750633#2 373750633#3 373750633#4 840059241 840059240#0 840059240#1 840059240#2 840059240#3 840059240#4"/>
    </vehicle>
    <vehicle id="truck115" type="truck" depart="1725.00">
        <route edges="-218991073#3 218991073#3 218991073#4 -323204750#1 -323204750#0"/>
    </vehicle>
    <vehicle id="truck118" type="truck" depart="1770.00">
        <route edges="840059244 373750633#1 373750633#2 373750633#3 -840059238#0 -840059237#2 -840059237#1"/>
    </vehicle>
    <vehicle id="truck120" type="truck" depart="1800.00">
        <route edges="183766545#0 -323204750#2 323204750#2"/>
    </vehicle>
    <vehicle id="truck121" type="truck" depart="1815.00">
        <route edges="218991086#0 -840066117 -97552125#0 97552102 373750241 97552081#0 97552081#1"/>
    </vehicle>
    <vehicle id="truck122" type="truck" depart="1830.00">
        <route edges="-408821095#1 373750633#2"/>
    </vehicle>
    <vehicle id="truck124" type="truck" depart="1860.00">
        <route edges="373750238#1 373750238#2 373750238#3 373750235 -323204750#3 -323204750#2 373750633#0 373750633#1 373750633#2 373750633#3 -840059238#0 -840059237#2 -840059237#1 -317468833 -840059240#2"/>
    </vehicle>
    <vehicle id="truck125" type="truck" depart="1875.00">
        <route edges="-840059243 373750633#1 -408821095#0 -218991136#1 218991136#1 408821095#0"/>
    </vehicle>
    <vehicle id="truck126" type="truck" depart="1890.00">
        <route edges="-218991073#2 -218991073#1 192225646#1"/>
    </vehicle>
    <vehicle id="truck127" type="truck" depart="1905.00">
        <route edges="97552125#0 97552125#1"/>
    </vehicle>
    <vehicle id="truck128" type="truck" depart="1920.00">
        <route edges="-218991073#2 218991073#2 218991073#3 218991073#4 323204750#2 323204750#3 -323204750#3"/>
    </vehicle>
    <vehicle id="truck131" type="truck" depart="1965.00">
        <route edges="-840207176#1 840115319#1 -97552081#0 373750240 373750238#3 373750235 -323204750#3 -323204750#2 373750633#0 373750633#1 -408821095#0 -218991136#1 -317468471"/>
    </vehicle>
    <vehicle id="truck133" type="truck" depart="1995.00">
        <route edges="323204750#1 323204750#2 323204750#3 97552111#0 97552111#1 373750238#5 373750238#0 373750237 97552125#0"/>
    </vehicle>
    <vehicle id="truck134" type="truck" depart="2010.00">
        <route edges="373750237 97552102 373750238#2 373750238#3 373750235 -323204750#3 -183766545#0"/>
    </vehicle>
    <vehicle id="truck135" type="truck" depart="2025.00">
        <route edges="840059237#1 -840059237#1 -317468833 -840059240#2"/>
    </vehicle>
    <vehicle id="truck136" type="truck" depart="2040.00">
        <route edges="373750238#0 373750238#1 373750241 97552081#0 97552081#1"/>
    </vehicle>
    <vehicle id="truck138" type="truck" depart="2070.00">
        <route edges="-218991107#0 840059240#2 317468833 840059237#1 317468471"/>
    </vehicle>
    <vehicle id="truck140" type="truck" depart="2100.00">
        <route edges="373750240 373750238#3 373750235 -323204750#3 -323204750#2"/>
    </vehicle>
    <vehicle id="truck141" type="truck" depart="2115.00">
        <route edges="323204750#3 -323204750#3 -323204750#2 373750633#0 373750633#1 373750633#2 373750633#3 -840059238#0 -840059237#2"/>
    </vehicle>
    <vehicle id="truck142" type="truck" depart="2130.00">
        <route edges="218991073#2 218991073#3 218991073#4 323204750#2 323204750#3 97552111#0 97552111#1 373750238#5 373750238#0 373750238#1 373750241 97552081#0 -840115319#1 840115319#1"/>
    </vehicle>
    <vehicle id="truck144" type="truck" depart="2160.00">
        <route edges="183766545#0 -323204750#2 373750633#0 373750633#1 373750633#2 373750633#3 373750633#4 840059241 840059240#0 840059240#1 -840059240#1 -840059240#0"/>
    </vehicle>
    <vehicle id="truck145" type="truck" depart="2175.00">
        <route edges="-183766545#0 840059244 373750633#1 373750633#2 373750633#3 -840059238#0 -840059237#2 -840059237#1 840059237#1"/>
    </vehicle>
    <vehicle id="truck146" type="truck" depart="2190.00">
        <route edges="323204750#3 -323204750#3 -323204750#2 373750633#0 373750633#1 373750633#2 373750633#3 -840059238#0 -840059237#2"/>
    </vehicle>
    <vehicle id="truck147" type="truck" depart="2205.00">
        <route edges="373750633#0 373750633#1 373750633#2 373750633#3 -840059238#0 -840059237#2 317468471"/>
    </vehicle>
    <vehicle id="truck148" type="truck" depart="2220.00">
        <route edges="183766545#0 183766545#1 -183766545#1"/>
    </vehicle>
    <vehicle id="truck149" type="truck" depart="2235.00">
        <route edges="-218991073#2 218991073#2 218991073#3 218991073#4 323204750#2 -183766545#0 840059244"/>
    </vehicle>
    <vehicle id="truck150" type="truck" depart="2250.00">
        <route edges="840066117 -840066117 -97552125#0 97552102 373750238#2 373750238#3 373750235 -323204750#3 -323204750#2 373750633#0 373750633#1 -408821095#0 -218991136#1 218991136#1"/>
    </vehicle>
    <vehicle id="truck152" type="truck" depart="2280.00">
        <route edges="-317468471 317468471 -218991136#0"/>
    </vehicle>
    <vehicle id="truck154" type="truck" depart="2310.00">
        <route edges="839036438 218991073#2 218991073#3 218991073#4 373750633#0 373750633#1 373750633#2 373750633#3 373750633#4 840059241"/>
    </vehicle>
    <vehicle id="truck155" type="truck" depart="2325.00">
        <route edges="840066117 -840066117 -97552125#0 97552102 373750238#2 373750238#3 373750235 -323204750#3"/>
    </vehicle>
    <vehicle id="truck158" type="truck" depart="2370.00">
        <route edges="-97552125#0 97552102 373750238#2 373750238#3 373750238#4 373750238#5 373750238#0"/>
    </vehicle>
    <vehicle id="truck162" type="truck" depart="2430.00">
        <route edges="-183766545#2 218991117 218991073#4 373750633#0 373750633#1 373750633#2 373750633#3 373750633#4 373750633#5"/>
    </vehicle>
    <vehicle id="truck163" type="truck" depart="2445.00">
        <route edges="-840059244 183766545#0 323204750#3 97552111#0 97552111#1 373750238#5 373750238#0 373750238#1 373750241 97552081#0"/>
    </vehicle>
    <vehicle id="truck164" type="truck" depart="2460.00">
        <route edges="840059237#0 840059237#1 840059237#2 840059238#0 373750633#4 840059241"/>
    </vehicle>
    <vehicle id="truck165" type="truck" depart="2475.00">
        <route edges="840059237#1 840059237#2 840059238#0 -840059238#0"/>
    </vehicle>
    <vehicle id="truck166" type="truck" depart="2490.00">
        <route edges="408821095#0 373750633#2 373750633#3 373750633#4 840059241 840059240#0 840059240#1 218991107#0 218991107#1 -218991107#1 -218991107#0"/>
    </vehicle>
    <vehicle id="truck167" type="truck" depart="2505.00">
        <route edges="840059240#3 -840059240#3 -840059240#2 -840059240#1 -840059240#0 -840059241 840059241"/>
    </vehicle>
    <vehicle id="truck168" type="truck" depart="2520.00">
        <route edges="-840059237#2 840059237#2 840059238#0 373750633#4 840059241 840059240#0"/>
    </vehicle>
    <vehicle id="truck169" type="truck" depart="2535.00">
        <route edges="218991015 218991073#3 218991073#4 373750633#0 373750633#1 373750633#2 373750633#3 373750633#4 840059241 840059240#0 840059240#1 840059240#2 840059240#3 -840059240#3"/>
    </vehicle>
    <vehicle id="truck170" type="truck" depart="2550.00">
        <route edges="839036438 -839036438"/>
    </vehicle>
    <vehicle id="truck171" type="truck" depart="2565.00">
        <route edges="-183766545#2 -183766545#1 -323204750#2 -323204750#1"/>
    </vehicle>
    <vehicle id="truck172" type="truck" depart="2580.00">
        <route edges="-840059244 183766545#0 -323204750#2 373750633#0 373750633#1 373750633#2 373750633#3 373750633#4 840059241"/>
    </vehicle>
    <vehicle id="truck173" type="truck" depart="2595.00">
        <route edges="97552102 373750238#2 373750238#3 373750235 -323204750#3 -323204750#2 373750633#0 373750633#1 373750633#2 373750633#3 373750633#4 840059241 840059240#0 840059240#1 -840059240#1 -840059240#0"/>
    </vehicle>
    <vehicle id="truck174" type="truck" depart="2610.00">
        <route edges="373750235 97552111#0 97552111#1 373750238#5 373750238#0 373750237 97552125#0 -97552125#0"/>
    </vehicle>
    <vehicle id="truck175" type="truck" depart="2625.00">
        <route edges="97552111#1 373750238#5 373750238#0 373750238#1 373750238#2 373750238#3 373750235 -323204750#3 183766545#1 218991117"/>
    </vehicle>
    <vehicle id="truck176" type="truck" depart="2640.00">
        <route edges="840207176#1 -97552125#0 97552102 373750238#2 373750238#3 373750235 -323204750#3 -323204750#2 -218991073#4 -218991117"/>
    </vehicle>
    <vehicle id="truck177" type="truck" depart="2655.00">
        <route edges="97552102 373750238#2 373750238#3 373750235 -323204750#3 -323204750#2 373750633#0 373750633#1 373750633#2 373750633#3 -840059238#0 -840059237#2 -840059237#1 -317468833"/>
    </vehicle>
    <vehicle id="truck178" type="truck" depart="2670.00">
        <route edges="97552102 373750238#2 373750238#3 373750235 -323204750#3 -323204750#2 373750633#0 373750633#1 373750633#2 373750633#3 -840059238#0"/>
    </vehicle>
    <vehicle id="truck180" type="truck" depart="2700.00">
        <route edges="373750241 373750240 373750238#3 373750235 -323204750#3 -323204750#2 373750633#0 373750633#1 373750633#2 373750633#3 373750633#4 840059241 840059240#0 840059240#1 -840059240#1 -840059240#0 -840059241"/>
    </vehicle>
    <vehicle id="truck181" type="truck" depart="2715.00">
        <route edges="323204750#0 323204750#1 373750633#0 373750633#1 373750633#2 373750633#3 373750633#4 840059241 840059240#0 840059240#1 218991107#0"/>
    </vehicle>
    <vehicle id="truck182" type="truck" depart="2730.00">
        <route edges="-97552081#1 -97552081#0 373750240 373750238#3 373750235 -323204750#3 -323204750#2 323204750#2"/>
    </vehicle>
    <vehicle id="truck183" type="truck" depart="2745.00">
        <route edges="-840059239 -840059240#3 317468833 840059237#1 317468471 218991136#1 408821095#0 373750633#2"/>
    </vehicle>
    <vehicle id="truck184" type="truck" depart="2760.00">
        <route edges="-183766545#0 840059244 -840059244 183766545#0 323204750#3 97552111#0 97552111#1 373750238#5 373750238#0 373750238#1 373750241 97552081#0"/>
    </vehicle>
    <vehicle id="truck185" type="truck" depart="2775.00">
        <route edges="218991117 218991073#4 373750633#0 373750633#1 373750633#2 373750633#3"/>
    </vehicle>
    <vehicle id="truck186" type="truck" depart="2790.00">
        <route edges="373750633#0 -840059244 183766545#0 323204750#3 97552111#0 97552111#1 373750238#5 373750238#0 373750238#1 373750241 373750240"/>
    </vehicle>
    <vehicle id="truck187" type="truck" depart="2805.00">
        <route edges="-840207176#1 840115319#1 -97552081#0 373750240 373750238#3 373750235 -323204750#3 -323204750#2 -218991073#4 -218991073#3 -218991073#2"/>
    </vehicle>
    <vehicle id="truck188" type="truck" depart="2820.00">
        <route edges="373750238#0 373750237 97552125#0 840066117 -840066117"/>
    </vehicle>
    <vehicle id="truck189" type="truck" depart="2835.00">
        <route edges="-840059241 840059241 840059240#0 840059240#1 840059240#2 840059240#3"/>
    </vehicle>
    <vehicle id="truck190" type="truck" depart="2850.00">
        <route edges="373750240 373750238#3 373750235 -323204750#3 -323204750#2 373750633#0 373750633#1 373750633#2 373750633#3 -840059238#0 -840059237#2 -840059237#1 -317468833 -840059240#2"/>
    </vehicle>
    <vehicle id="truck192" type="truck" depart="2880.00">
        <route edges="-97552125#0 97552102 373750238#2 373750238#3 373750235 -323204750#3 -323204750#2 373750633#0 373750633#1 373750633#2 373750633#3 -840059238#0 -840059237#2 -840059237#1 -317468833 -840059240#2"/>
    </vehicle>
    <vehicle id="truck193" type="truck" depart="2895.00">
        <route edges="-218991117 -183766545#1 183766545#1"/>
    </vehicle>
    <vehicle id="truck194" type="truck" depart="2910.00">
        <route edges="840207176#1 -97552125#0 97552102 373750241 373750240"/>
    </vehicle>
    <vehicle id="truck195" type="truck" depart="2925.00">
        <route edges="840066117 -840066117 -97552125#0 97552102 373750238#2 373750238#3 373750238#4 373750238#5 373750238#0"/>