<?xml version="1.0" encoding="UTF-8"?>
<!-- generated on 2024-05-29 16:02:25.171703 by randomTrips.py UNKNOWN
  options: -n map.net.xml -r truck_routes.rou.xml -o truck_trips.xml -e 3600 -p 15 <doubleminus>vehicle-class truck <doubleminus>trip-attributes=color="179,223,183"
-->
<routes xmlns:xsi="http://www.w3.org/2001/XMLSchema-instance" xsi:noNamespaceSchemaLocation="http://sumo.dlr.de/xsd/routes_file.xsd">
    <vType id="truck" vClass="truck" color="179,223,183"/>
    <trip id="0" depart="0.00" from="373750235" to="-183766545#2" type="truck"/>
    <trip id="1" depart="15.00" from="-840059240#1" to="-408821095#0" type="truck"/>
    <trip id="2" depart="30.00" from="373750633#0" to="373750240" type="truck"/>
    <trip id="3" depart="45.00" from="840059244" to="-218991073#4" type="truck"/>
    <trip id="4" depart="60.00" from="183766545#0" to="-192225646#0" type="truck"/>
    <trip id="5" depart="75.00" from="-840059237#1" to="218991086#1" type="truck"/>
    <trip id="6" depart="90.00" from="-183766545#2" to="-323204750#2" type="truck"/>
    <trip id="7" depart="105.00" from="373750237" to="218991136#1" type="truck"/>
    <trip id="8" depart="120.00" from="-840059237#2" to="323204750#3" type="truck"/>
    <trip id="9" depart="135.00" from="840059237#0" to="-183766545#0" type="truck"/>
    <trip id="10" depart="150.00" from="840059237#0" to="373750633#1" type="truck"/>
    <trip id="11" depart="165.00" from="-840066117" to="-317468471" type="truck"/>
    <trip id="12" depart="180.00" from="97552081#1" to="-840066117" type="truck"/>
    <trip id="13" depart="195.00" from="-218991073#4" to="-218991086#0" type="truck"/>
    <trip id="14" depart="210.00" from="840059240#0" to="373750235" type="truck"/>
    <trip id="15" depart="225.00" from="840059237#0" to="373750633#4" type="truck"/>
    <trip id="16" depart="240.00" from="218991117" to="97552111#1" type="truck"/>
    <trip id="17" depart="255.00" from="-97552081#0" to="317468471" type="truck"/>
    <trip id="18" depart="270.00" from="840059238#0" to="373750238#0" type="truck"/>
    <trip id="19" depart="285.00" from="840059240#2" to="323204750#2" type="truck"/>
    <trip id="20" depart="300.00" from="373750238#4" to="-218991015" type="truck"/>
    <trip id="21" depart="315.00" from="-840059237#2" to="-840059240#1" type="truck"/>
    <trip id="22" depart="330.00" from="-218991073#3" to="-839036438" type="truck"/>
    <trip id="23" depart="345.00" from="-218991086#1" to="-840059240#0" type="truck"/>
    <trip id="24" depart="360.00" from="323204750#3" to="-840207176#0" type="truck"/>
    <trip id="25" depart="375.00" from="-840207176#1" to="-323204750#3" type="truck"/>
    <trip id="26" depart="390.00" from="-840059240#1" to="97552081#1" type="truck"/>
    <trip id="27" depart="405.00" from="373750237" to="373750237" type="truck"/>
    <trip id="28" depart="420.00" from="-323204750#1" to="373750633#4" type="truck"/>
    <trip id="29" depart="435.00" from="-323204750#1" to="-97552081#0" type="truck"/>
    <trip id="30" depart="450.00" from="97552111#1" to="373750238#2" type="truck"/>
    <trip id="31" depart="465.00" from="218991136#1" to="373750241" type="truck"/>
    <trip id="32" depart="480.00" from="840059240#0" to="840059237#2" type="truck"/>
    <trip id="33" depart="495.00" from="-840059238#0" to="-192225646#0" type="truck"/>
    <trip id="34" depart="510.00" from="-840059243" to="-840059238#0" type="truck"/>
    <trip id="35" depart="525.00" from="-840059237#1" to="97552081#1" type="truck"/>
    <trip id="36" depart="540.00" from="840059241" to="-840059241" type="truck"/>
    <trip id="37" depart="555.00" from="373750237" to="-97552081#1" type="truck"/>
    <trip id="38" depart="570.00" from="840115319#1" to="192225646#1" type="truck"/>
    <trip id="39" depart="585.00" from="-840059240#0" to="-840059237#1" type="truck"/>
    <trip id="40" depart="600.00" from="218991136#1" to="-840059237#2" type="truck"/>
    <trip id="41" depart="615.00" from="317468483" to="840115319#1" type="truck"/>
    <trip id="42" depart="630.00" from="-97552081#2" to="-408821095#0" type="truck"/>
    <trip id="43" depart="645.00" from="97552125#0" to="218991107#0" type="truck"/>
    <trip id="44" depart="660.00" from="-218991073#4" to="-218991015" type="truck"/>
    <trip id="45" depart="675.00" from="-218991107#0" to="373750238#1" type="truck"/>
    <trip id="46" depart="690.00" from="839036438" to="183766545#1" type="truck"/>
    <trip id="47" depart="705.00" from="-218991073#1" to="-97552081#0" type="truck"/>
    <trip id="48" depart="720.00" from="97552125#0" to="218991117" type="truck"/>
    <trip id="49" depart="735.00" from="97552102" to="840059241" type="truck"/>
    <trip id="50" depart="750.00" from="-183766545#1" to="373750633#3" type="truck"/>
    <trip id="51" depart="765.00" from="373750238#2" to="218991117" type="truck"/>
    <trip id="52" depart="780.00" from="-840059240#1" to="373750238#2" type="truck"/>
    <trip id="53" depart="795.00" from="-218991107#0" to="183766545#3" type="truck"/>
    <trip id="54" depart="810.00" from="192225646#0" to="97552102" type="truck"/>
    <trip id="55" depart="825.00" from="840059240#3" to="-840059237#2" type="truck"/>
    <trip id="56" depart="840.00" from="218991073#3" to="-317468833" type="truck"/>
    <trip id="57" depart="855.00" from="840115319#0" to="840059243" type="truck"/>
    <trip id="58" depart="870.00" from="-840059240#4" to="373750238#2" type="truck"/>
    <trip id="59" depart="885.00" from="323204750#0" to="-317468471" type="truck"/>
    <trip id="60" depart="900.00" from="373750633#3" to="218991136#1" type="truck"/>
    <trip id="61" depart="915.00" from="373750633#4" to="218991117" type="truck"/>
    <trip id="62" depart="930.00" from="-183766545#0" to="-840059244" type="truck"/>
    <trip id="63" depart="945.00" from="-183766545#2" to="97552081#0" type="truck"/>
    <trip id="64" depart="960.00" from="840059241" to="840059240#2" type="truck"/>
    <trip id="65" depart="975.00" from="-840059241" to="-218991073#1" type="truck"/>
    <trip id="66" depart="990.00" from="840059241" to="97552081#2" type="truck"/>
    <trip id="67" depart="1005.00" from="-218991073#3" to="218991073#3" type="truck"/>
    <trip id="68" depart="1020.00" from="-218991073#2" to="408821095#1" type="truck"/>
    <trip id="69" depart="1035.00" from="373750633#3" to="-218991136#0" type="truck"/>
    <trip id="70" depart="1050.00" from="218991073#0" to="317468471" type="truck"/>
    <trip id="71" depart="1065.00" from="-840059240#0" to="840059243" type="truck"/>
    <trip id="72" depart="1080.00" from="183766545#0" to="-323204750#3" type="truck"/>
    <trip id="73" depart="1095.00" from="218991117" to="373750633#4" type="truck"/>
    <trip id="74" depart="1110.00" from="-408821095#1" to="-840059241" type="truck"/>
    <trip id="75" depart="1125.00" from="97552125#0" to="373750238#3" type="truck"/>
    <trip id="76" depart="1140.00" from="183766545#2" to="218991107#0" type="truck"/>
    <trip id="77" depart="1155.00" from="-218991107#1" to="-408821095#0" type="truck"/>
    <trip id="78" depart="1170.00" from="-840066117" to="323204750#3" type="truck"/>
    <trip id="79" depart="1185.00" from="-840059238#0" to="-408821095#0" type="truck"/>
    <trip id="80" depart="1200.00" from="-218991073#2" to="373750238#1" type="truck"/>
    <trip id="81" depart="1215.00" from="-840059238#0" to="840115319#1" type="truck"/>
    <trip id="82" depart="1230.00" from="840059240#2" to="-218991073#2" type="truck"/>
    <trip id="83" depart="1245.00" from="-840059238#0" to="373750238#5" type="truck"/>
    <trip id="84" depart="1260.00" from="-840059237#1" to="-218991136#1" type="truck"/>
    <trip id="85" depart="1275.00" from="840207176#1" to="323204750#1" type="truck"/>
    <trip id="86" depart="1290.00" from="218991073#0" to="840059238#0" type="truck"/>
    <trip id="87" depart="1305.00" from="840059237#0" to="-323204750#1" type="truck"/>
    <trip id="88" depart="1320.00" from="-218991086#1" to="183766545#2" type="truck"/>
    <trip id="89" depart="1335.00" from="183766545#0" to="218991073#1" type="truck"/>
    <trip id="90" depart="1350.00" from="373750241" to="373750240" type="truck"/>
    <trip id="91" depart="1365.00" from="97552111#1" to="-218991086#0" type="truck"/>
    <trip id="92" depart="1380.00" from="-97552125#0" to="-840066117" type="truck"/>
    <trip id="93" depart="1395.00" from="840059240#2" to="-840059237#1" type="truck"/>
    <trip id="94" depart="1410.00" from="-323204750#3" to="192225646#0" type="truck"/>
    <trip id="95" depart="1425.00" from="183766545#0" to="-840059240#0" type="truck"/>
    <trip id="96" depart="1440.00" from="-840059239" to="840207176#1" type="truck"/>
    <trip id="97" depart="1455.00" from="183766545#2" to="840059241" type="truck"/>
    <trip id="98" depart="1470.00" from="218991136#0" to="-218991073#0" type="truck"/>
    <trip id="99" depart="1485.00" from="97552125#0" to="840059240#2" type="truck"/>
    <trip id="100" depart="1500.00" from="97552102" to="97552081#0" type="truck"/>
    <trip id="101" depart="1515.00" from="840059240#1" to="-317468483" type="truck"/>
    <trip id="102" depart="1530.00" from="218991073#1" to="-323204750#3" type="truck"/>
    <trip id="103" depart="1545.00" from="-97552125#0" to="-218991073#1" type="truck"/>
    <trip id="104" depart="1560.00" from="-97552081#0" to="97552125#0" type="truck"/>
    <trip id="105" depart="1575.00" from="-840059240#0" to="840059238#0" type="truck"/>
    <trip id="106" depart="1590.00" from="192225646#0" to="183766545#1" type="truck"/>
    <trip id="107" depart="1605.00" from="97552081#1" to="97552125#1" type="truck"/>
    <trip id="108" depart="1620.00" from="218991136#1" to="373750633#3" type="truck"/>
    <trip id="109" depart="1635.00" from="-317468833" to="-840059240#2" type="truck"/>
    <trip id="110" depart="1650.00" from="97552102" to="323204750#2" type="truck"/>
    <trip id="111" depart="1665.00" from="218991117" to="408821095#0" type="truck"/>
    <trip id="112" depart="1680.00" from="-218991073#1" to="323204750#2" type="truck"/>
    <trip id="113" depart="1695.00" from="218991073#3" to="840059240#4" type="truck"/>
    <trip id="114" depart="1710.00" from="-317468833" to="97552102" type="truck"/>
    <trip id="115" depart="1725.00" from="-218991073#3" to="-323204750#0" type="truck"/>
    <trip id="116" depart="1740.00" from="317468833" to="373750240" type="truck"/>
    <trip id="117" depart="1755.00" from="-840059238#0" to="-218991117" type="truck"/>
    <trip id="118" depart="1770.00" from="840059244" to="-840059237#1" type="truck"/>
    <trip id="119" depart="1785.00" from="317468833" to="373750238#0" type="truck"/>
    <trip id="120" depart="1800.00" from="183766545#0" to="323204750#2" type="truck"/>
    <trip id="121" depart="1815.00" from="218991086#0" to="97552081#1" type="truck"/>
    <trip id="122" depart="1830.00" from="-408821095#1" to="373750633#2" type="truck"/>
    <trip id="123" depart="1845.00" from="-840059238#1" to="-97552081#1" type="truck"/>
    <trip id="124" depart="1860.00" from="373750238#1" to="-840059240#2" type="truck"/>
    <trip id="125" depart="1875.00" from="-840059243" to="408821095#0" type="truck"/>
    <trip id="126" depart="1890.00" from="-218991073#2" to="192225646#1" type="truck"/>
    <trip id="127" depart="1905.00" from="97552125#0" to="97552125#1" type="truck"/>
    <trip id="128" depart="1920.00" from="-218991073#2" to="-323204750#3" type="truck"/>
    <trip id="129" depart="1935.00" from="-840059240#0" to="97552081#0" type="truck"/>
    <trip id="130" depart="1950.00" from="840059241" to="840059244" type="truck"/>
    <trip id="131" depart="1965.00" from="-840207176#1" to="-317468471" type="truck"/>
    <trip id="132" depart="1980.00" from="840059238#0" to="373750633#1" type="truck"/>
    <trip id="133" depart="1995.00" from="323204750#1" to="97552125#0" type="truck"/>
    <trip id="134" depart="2010.00" from="373750237" to="-183766545#0" type="truck"/>
    <trip id="135" depart="2025.00" from="840059237#1" to="-840059240#2" type="truck"/>
    <trip id="136" depart="2040.00" from="373750238#0" to="97552081#1" type="truck"/>
    <trip id="137" depart="2055.00" from="-218991136#1" to="-218991117" type="truck"/>
    <trip id="138" depart="2070.00" from="-218991107#0" to="317468471" type="truck"/>
    <trip id="139" depart="2085.00" from="-840059240#1" to="373750237" type="truck"/>
    <trip id="140" depart="2100.00" from="373750240" to="-323204750#2" type="truck"/>
    <trip id="141" depart="2115.00" from="323204750#3" to="-840059237#2" type="truck"/>
    <trip id="142" depart="2130.00" from="218991073#2" to="840115319#1" type="truck"/>
    <trip id="143" depart="2145.00" from="840059240#0" to="-218991073#4" type="truck"/>
    <trip id="144" depart="2160.00" from="183766545#0" to="-840059240#0" type="truck"/>
    <trip id="145" depart="2175.00" from="-183766545#0" to="840059237#1" type="truck"/>
    <trip id="146" depart="2190.00" from="323204750#3" to="-840059237#2" type="truck"/>
    <trip id="147" depart="2205.00" from="373750633#0" to="317468471" type="truck"/>
    <trip id="148" depart="2220.00" from="183766545#0" to="-183766545#1" type="truck"/>
    <trip id="149" depart="2235.00" from="-218991073#2" to="840059244" type="truck"/>
    <trip id="150" depart="2250.00" from="840066117" to="218991136#1" type="truck"/>
    <trip id="151" depart="2265.00" from="840059238#0" to="323204750#2" type="truck"/>
    <trip id="152" depart="2280.00" from="-317468471" to="-218991136#0" type="truck"/>
    <trip id="153" depart="2295.00" from="-840059241" to="840115319#1" type="truck"/>
    <trip id="154" depart="2310.00" from="839036438" to="840059241" type="truck"/>
    <trip id="155" depart="2325.00" from="840066117" to="-323204750#3" type="truck"/>
    <trip id="156" depart="2340.00" from="-840059239" to="-218991086#0" type="truck"/>
    <trip id="157" depart="2355.00" from="373750633#4" to="840059244" type="truck"/>
    <trip id="158" depart="2370.00" from="-97552125#0" to="373750238#0" type="truck"/>
    <trip id="159" depart="2385.00" from="-317468833" to="97552081#0" type="truck"/>
    <trip id="160" depart="2400.00" from="840059240#2" to="97552111#1" type="truck"/>
    <trip id="161" depart="2415.00" from="840059237#1" to="840059244" type="truck"/>
    <trip id="162" depart="2430.00" from="-183766545#2" to="373750633#5" type="truck"/>
    <trip id="163" depart="2445.00" from="-840059244" to="97552081#0" type="truck"/>
    <trip id="164" depart="2460.00" from="840059237#0" to="840059241" type="truck"/>
    <trip id="165" depart="2475.00" from="840059237#1" to="-840059238#0" type="truck"/>
    <trip id="166" depart="2490.00" from="408821095#0" to="-218991107#0" type="truck"/>
    <trip id="167" depart="2505.00" from="840059240#3" to="840059241" type="truck"/>
    <trip id="168" depart="2520.00" from="-840059237#2" to="840059240#0" type="truck"/>
    <trip id="169" depart="2535.00" from="218991015" to="-840059240#3" type="truck"/>
    <trip id="170" depart="2550.00" from="839036438" to="-839036438" type="truck"/>
    <trip id="171" depart="2565.00" from="-183766545#2" to="-323204750#1" type="truck"/>
    <trip id="172" depart="2580.00" from="-840059244" to="840059241" type="truck"/>
    <trip id="173" depart="2595.00" from="97552102" to="-840059240#0" type="truck"/>
    <trip id="174" depart="2610.00" from="373750235" to="-97552125#0" type="truck"/>
    <trip id="175" depart="2625.00" from="97552111#1" to="218991117" type="truck"/>
    <trip id="176" depart="2640.00" from="840207176#1" to="-218991117" type="truck"/>
    <trip id="177" depart="2655.00" from="97552102" to="-317468833" type="truck"/>
    <trip id="178" depart="2670.00" from="97552102" to="-840059238#0" type="truck"/>
    <trip id="179" depart="2685.00" from="-218991107#0" to="183766545#3" type="truck"/>
    <trip id="180" depart="2700.00" from="373750241" to="-840059241" type="truck"/>
    <trip id="181" depart="2715.00" from="323204750#0" to="218991107#0" type="truck"/>
    <trip id="182" depart="2730.00" from="-97552081#1" to="323204750#2" type="truck"/>
    <trip id="183" depart="2745.00" from="-840059239" to="373750633#2" type="truck"/>
    <trip id="184" depart="2760.00" from="-183766545#0" to="97552081#0" type="truck"/>
    <trip id="185" depart="2775.00" from="218991117" to="373750633#3" type="truck"/>
    <trip id="186" depart="2790.00" from="373750633#0" to="373750240" type="truck"/>
    <trip id="187" depart="2805.00" from="-840207176#1" to="-218991073#2" type="truck"/>
    <trip id="188" depart="2820.00" from="373750238#0" to="-840066117" type="truck"/>
    <trip id="189" depart="2835.00" from="-840059241" to="840059240#3" type="truck"/>
    <trip id="190" depart="2850.00" from="373750240" to="-840059240#2" type="truck"/>
    <trip id="191" depart="2865.00" from="-840059241" to="183766545#0" type="truck"/>
    <trip id="192" depart="2880.00" from="-97552125#0" to="-840059240#2" type="truck"/>
    <trip id="193" depart="2895.00" from="-218991117" to="183766545#1" type="truck"/>
    <trip id="194" depart="2910.00" from="840207176#1" to="373750240" type="truck"/>
    <trip id="195" depart="2925.00" from="840066117" to="373750238#0" type="truck"/>
    <trip id="196" depart="2940.00" from="-840059240#4" to="317468471" type="truck"/>
    <trip id="197" depart="2955.00" from="-183766545#0" to="-840059240#1" type="truck"/>
    <trip id="198" depart="2970.00" from="183766545#1" to="323204750#2" type="truck"/>
    <trip id="199" depart="2985.00" from="373750237" to="218991073#1" type="truck"/>
    <trip id="200" depart="3000.00" from="183766545#2" to="-323204750#3" type="truck"/>
    <trip id="201" depart="3015.00" from="218991073#0" to="840115319#1" type="truck"/>
    <trip id="202" depart="3030.00" from="839036438" to="-317468483" type="truck"/>
    <trip id="203" depart="3045.00" from="-218991073#3" to="218991107#0" type="truck"/>
    <trip id="204" depart="3060.00" from="323204750#3" to="-840066117" type="truck"/>
    <trip id="205" depart="3075.00" from="840059237#1" to="408821095#0" type="truck"/>
    <trip id="206" depart="3090.00" from="373750238#1" to="-408821095#0" type="truck"/>
    <trip id="207" depart="3105.00" from="-408821095#0" to="-183766545#2" type="truck"/>
    <trip id="208" depart="3120.00" from="-840059238#1" to="218991073#2" type="truck"/>
    <trip id="209" depart="3135.00" from="840059240#1" to="-218991073#2" type="truck"/>
    <trip id="210" depart="3150.00" from="-97552125#1" to="373750238#1" type="truck"/>
    <trip id="211" depart="3165.00" from="-408821095#0" to="373750633#0" type="truck"/>
    <trip id="212" depart="3180.00" from="218991073#2" to="-840059237#0" type="truck"/>
    <trip id="213" depart="3195.00" from="373750237" to="-183766545#0" type="truck"/>
    <trip id="214" depart="3210.00" from="373750633#1" to="840059237#1" type="truck"/>
    <trip id="215" depart="3225.00" from="-218991107#0" to="183766545#2" type="truck"/>
    <trip id="216" depart="3240.00" from="-323204750#2" to="97552102" type="truck"/>
    <trip id="217" depart="3255.00" from="218991086#0" to="-218991073#0" type="truck"/>
    <trip id="218" depart="3270.00" from="-840059239" to="840059240#3" type="truck"/>
    <trip id="219" depart="3285.00" from="192225646#0" to="840059238#1" type="truck"/>
    <trip id="220" depart="3300.00" from="373750238#1" to="97552125#0" type="truck"/>
    <trip id="221" depart="3315.00" from="317468833" to="97552081#2" type="truck"/>
    <trip id="222" depart="3330.00" from="840059244" to="373750237" type="truck"/>
    <trip id="223" depart="3345.00" from="373750240" to="218991086#1" type="truck"/>
    <trip id="224" depart="3360.00" from="840059238#0" to="317468471" type="truck"/>
    <trip id="225" depart="3375.00" from="840066117" to="373750633#5" type="truck"/>
    <trip id="226" depart="3390.00" from="218991073#0" to="-840059237#2" type="truck"/>
    <trip id="227" depart="3405.00" from="-840059238#1" to="373750238#2" type="truck"/>
    <trip id="228" depart="3420.00" from="373750633#3" to="218991107#1" type="truck"/>
    <trip id="229" depart="3435.00" from="323204750#2" to="-840059240#0" type="truck"/>
    <trip id="230" depart="3450.00" from="-218991073#3" to="-840059240#1" type="truck"/>
    <trip id="231" depart="3465.00" from="-840059240#1" to="-840059241" type="truck"/>
    <trip id="232" depart="3480.00" from="218991117" to="-218991136#1" type="truck"/>
    <trip id="233" depart="3495.00" from="-840059238#0" to="373750633#0" type="truck"/>
    <trip id="234" depart="3510.00" from="373750238#5" to="-218991073#1" type="truck"/>
    <trip id="235" depart="3525.00" from="-97552125#0" to="218991136#1" type="truck"/>
    <trip id="236" depart="3540.00" from="-97552125#1" to="-323204750#2" type="truck"/>
    <trip id="237" depart="3555.00" from="183766545#0" to="840115319#1" type="truck"/>
    <trip id="238" depart="3570.00" from="317468483" to="373750633#0" type="truck"/>
    <trip id="239" depart="3585.00" from="840059240#1" to="840059237#1" type="truck"/>
</routes>
